*SPEF "ieee 1481-1999"
*DESIGN "mult"
*DATE "02:01:28 Tuesday November 25, 2025"
*VENDOR "The OpenROAD Project"
*PROGRAM "OpenROAD"
*VERSION "edf00dff99f6c40d67a30c0e22a8191c5d2ed9d6"
*DESIGN_FLOW "NAME_SCOPE LOCAL" "PIN_CAP NONE"
*DIVIDER /
*DELIMITER :
*BUS_DELIMITER []
*T_UNIT 1 NS
*C_UNIT 1 PF
*R_UNIT 1 OHM
*L_UNIT 1 HENRY

*NAME_MAP
*3 a[0]
*4 a[1]
*5 a[2]
*6 a[3]
*7 a[4]
*8 a[5]
*9 a[6]
*10 a[7]
*11 b[0]
*12 b[1]
*13 b[2]
*14 b[3]
*15 b[4]
*16 b[5]
*17 b[6]
*18 b[7]
*19 clk
*20 product[0]
*21 product[10]
*22 product[11]
*23 product[12]
*24 product[13]
*25 product[14]
*26 product[15]
*27 product[1]
*28 product[2]
*29 product[3]
*30 product[4]
*31 product[5]
*32 product[6]
*33 product[7]
*34 product[8]
*35 product[9]
*36 rst
*37 _000_
*38 _001_
*39 _002_
*40 _003_
*41 _004_
*42 _005_
*43 _006_
*44 _007_
*45 _008_
*46 _009_
*47 _010_
*48 _011_
*49 _012_
*50 _013_
*51 _014_
*52 _015_
*53 _016_
*54 _017_
*55 _018_
*56 _019_
*57 _020_
*58 _021_
*59 _022_
*60 _023_
*61 _024_
*62 _025_
*63 _026_
*64 _027_
*65 _028_
*66 _029_
*67 _030_
*68 _031_
*69 _032_
*70 _033_
*71 _034_
*72 _035_
*73 _036_
*74 _037_
*75 _038_
*76 _039_
*77 _040_
*78 _041_
*79 _042_
*80 _043_
*81 _044_
*82 _045_
*83 _046_
*84 _047_
*85 _048_
*86 _049_
*87 _050_
*88 _051_
*89 _052_
*90 _053_
*91 _054_
*92 _055_
*93 _056_
*94 _057_
*95 _058_
*96 _059_
*97 _060_
*98 _061_
*99 _062_
*100 _063_
*101 _064_
*102 _065_
*103 _066_
*104 _067_
*105 _068_
*106 _069_
*107 _070_
*108 _071_
*109 _072_
*110 _073_
*111 _074_
*112 _075_
*113 _076_
*114 _077_
*115 _078_
*116 _079_
*117 _080_
*118 _081_
*119 _082_
*120 _083_
*121 _084_
*122 _085_
*123 _086_
*124 _087_
*125 _088_
*126 _089_
*127 _090_
*128 _091_
*129 _092_
*130 _093_
*131 _094_
*132 _095_
*133 _096_
*134 _097_
*135 _098_
*136 _099_
*137 _100_
*138 _101_
*139 _102_
*140 _103_
*141 _104_
*142 _105_
*143 _106_
*144 _107_
*145 _108_
*146 _109_
*147 _110_
*148 _111_
*149 _112_
*150 _113_
*151 _114_
*152 _115_
*153 _116_
*154 _117_
*155 _118_
*156 _119_
*157 _120_
*158 _121_
*159 _122_
*160 _123_
*161 _124_
*162 _125_
*163 _126_
*164 _127_
*165 _128_
*166 _129_
*167 _130_
*168 _131_
*169 _132_
*170 _133_
*171 _134_
*172 _135_
*173 _136_
*174 _137_
*175 _138_
*176 _139_
*177 _140_
*178 _141_
*179 _142_
*180 _143_
*181 _144_
*182 _145_
*183 _146_
*184 _147_
*185 _148_
*186 _149_
*187 _150_
*188 _151_
*189 _152_
*190 _153_
*191 _154_
*192 _155_
*193 _156_
*194 _157_
*195 _158_
*196 _159_
*197 _160_
*198 _161_
*199 _162_
*200 _163_
*201 _164_
*202 _165_
*203 _166_
*204 _167_
*205 _168_
*206 _169_
*207 _170_
*208 _171_
*209 _172_
*210 _173_
*211 _174_
*212 _175_
*213 _176_
*214 _177_
*215 _178_
*216 _179_
*217 _180_
*218 _181_
*219 _182_
*220 _183_
*221 _184_
*222 _185_
*223 _186_
*224 _187_
*225 _188_
*226 _189_
*227 _190_
*228 _191_
*229 _192_
*230 _193_
*231 _194_
*232 _195_
*233 _196_
*234 _197_
*235 _198_
*236 _199_
*237 _200_
*238 _201_
*239 _202_
*240 _203_
*241 _204_
*242 _205_
*243 _206_
*244 _207_
*245 _208_
*246 _209_
*247 _210_
*248 _211_
*249 _212_
*250 _213_
*251 _214_
*252 _215_
*253 _216_
*254 _217_
*255 _218_
*256 _219_
*257 _220_
*258 _221_
*259 _222_
*260 _223_
*261 _224_
*262 _225_
*263 _226_
*264 _227_
*265 _228_
*266 _229_
*267 _230_
*268 _231_
*269 _232_
*270 _233_
*271 _234_
*272 _235_
*273 _236_
*274 _237_
*275 _238_
*276 _239_
*277 _240_
*278 _241_
*279 _242_
*280 _243_
*281 _244_
*282 _245_
*283 _246_
*284 _247_
*285 _248_
*286 _249_
*287 _250_
*288 _251_
*289 _252_
*290 _253_
*291 _254_
*292 _255_
*293 _256_
*294 _257_
*295 _258_
*296 _259_
*297 _260_
*298 _261_
*299 _262_
*300 _263_
*301 _264_
*302 _265_
*303 _266_
*304 _267_
*305 _268_
*306 _269_
*307 _270_
*308 _271_
*309 _272_
*310 _273_
*311 _274_
*312 _275_
*313 _276_
*314 _277_
*315 _278_
*316 _279_
*317 _280_
*318 _281_
*319 _282_
*320 _283_
*321 _284_
*322 _285_
*323 _286_
*324 _287_
*325 _288_
*326 _289_
*327 _290_
*328 _291_
*329 _292_
*330 _293_
*331 _294_
*332 _295_
*333 _296_
*334 _297_
*335 _298_
*336 _299_
*337 _300_
*338 _301_
*339 _302_
*340 _303_
*341 _304_
*342 _305_
*343 _306_
*344 _307_
*345 _308_
*346 _309_
*347 _310_
*348 _311_
*349 _312_
*350 _313_
*351 _314_
*352 _315_
*353 _316_
*354 _317_
*355 _318_
*356 _319_
*357 _320_
*358 _321_
*359 _322_
*360 _323_
*361 _324_
*362 _325_
*363 _326_
*364 _327_
*365 _328_
*366 _329_
*367 _330_
*368 _331_
*369 _332_
*370 _333_
*371 _334_
*372 _335_
*373 _336_
*374 _337_
*375 _338_
*376 _339_
*377 _340_
*378 _341_
*379 _342_
*380 _343_
*381 _344_
*382 _345_
*383 _346_
*384 _347_
*385 _348_
*386 _349_
*387 _350_
*388 _351_
*389 _352_
*390 _353_
*391 _354_
*392 _355_
*393 _356_
*394 _357_
*395 _358_
*396 _359_
*397 _360_
*398 _361_
*399 _362_
*400 _363_
*401 _364_
*402 _365_
*403 _366_
*404 _367_
*405 _368_
*406 _369_
*407 _370_
*408 _371_
*409 _372_
*410 _373_
*411 _374_
*412 _375_
*413 _376_
*414 _377_
*415 _378_
*416 _379_
*417 _380_
*418 _381_
*419 a_high\[0\]
*420 a_high\[1\]
*421 a_high\[2\]
*422 a_high\[3\]
*423 a_low\[0\]
*424 a_low\[1\]
*425 a_low\[2\]
*426 a_low\[3\]
*427 b_high\[0\]
*428 b_high\[1\]
*429 b_high\[2\]
*430 b_high\[3\]
*431 b_low\[0\]
*432 b_low\[1\]
*433 b_low\[2\]
*434 b_low\[3\]
*435 clknet_0_clk
*436 clknet_3_0__leaf_clk
*437 clknet_3_1__leaf_clk
*438 clknet_3_2__leaf_clk
*439 clknet_3_3__leaf_clk
*440 clknet_3_4__leaf_clk
*441 clknet_3_5__leaf_clk
*442 clknet_3_6__leaf_clk
*443 clknet_3_7__leaf_clk
*444 middle_sum\[0\]
*445 middle_sum\[1\]
*446 middle_sum\[2\]
*447 middle_sum\[3\]
*448 middle_sum\[4\]
*449 middle_sum\[5\]
*450 middle_sum\[6\]
*451 middle_sum\[7\]
*452 net1
*453 net10
*454 net11
*455 net12
*456 net13
*457 net14
*458 net15
*459 net16
*460 net17
*461 net18
*462 net19
*463 net2
*464 net20
*465 net21
*466 net22
*467 net23
*468 net24
*469 net25
*470 net26
*471 net27
*472 net28
*473 net29
*474 net3
*475 net30
*476 net31
*477 net32
*478 net33
*479 net34
*480 net35
*481 net36
*482 net37
*483 net38
*484 net39
*485 net4
*486 net40
*487 net41
*488 net42
*489 net43
*490 net44
*491 net45
*492 net46
*493 net47
*494 net48
*495 net49
*496 net5
*497 net50
*498 net51
*499 net52
*500 net53
*501 net54
*502 net55
*503 net56
*504 net57
*505 net58
*506 net59
*507 net6
*508 net60
*509 net61
*510 net62
*511 net63
*512 net64
*513 net65
*514 net66
*515 net67
*516 net68
*517 net69
*518 net7
*519 net70
*520 net71
*521 net72
*522 net73
*523 net74
*524 net8
*525 net9
*526 pp0\[0\]
*527 pp0\[1\]
*528 pp0\[2\]
*529 pp0\[3\]
*530 pp0\[4\]
*531 pp0\[5\]
*532 pp0\[6\]
*533 pp0\[7\]
*534 pp1\[0\]
*535 pp1\[1\]
*536 pp1\[2\]
*537 pp1\[3\]
*538 pp1\[4\]
*539 pp1\[5\]
*540 pp1\[6\]
*541 pp1\[7\]
*542 pp2\[0\]
*543 pp2\[1\]
*544 pp2\[2\]
*545 pp2\[3\]
*546 pp2\[4\]
*547 pp2\[5\]
*548 pp2\[6\]
*549 pp2\[7\]
*550 pp3\[0\]
*551 pp3\[1\]
*552 pp3\[2\]
*553 pp3\[3\]
*554 pp3\[4\]
*555 pp3\[5\]
*556 pp3\[6\]
*557 pp3\[7\]
*558 FILLER_0_110
*559 FILLER_0_113
*560 FILLER_0_125
*561 FILLER_0_131
*562 FILLER_0_135
*563 FILLER_0_139
*564 FILLER_0_141
*565 FILLER_0_147
*566 FILLER_0_15
*567 FILLER_0_162
*568 FILLER_0_169
*569 FILLER_0_175
*570 FILLER_0_183
*571 FILLER_0_189
*572 FILLER_0_195
*573 FILLER_0_197
*574 FILLER_0_209
*575 FILLER_0_27
*576 FILLER_0_29
*577 FILLER_0_3
*578 FILLER_0_34
*579 FILLER_0_42
*580 FILLER_0_51
*581 FILLER_0_55
*582 FILLER_0_57
*583 FILLER_0_80
*584 FILLER_0_85
*585 FILLER_0_89
*586 FILLER_0_93
*587 FILLER_0_98
*588 FILLER_10_107
*589 FILLER_10_115
*590 FILLER_10_127
*591 FILLER_10_139
*592 FILLER_10_15
*593 FILLER_10_163
*594 FILLER_10_189
*595 FILLER_10_195
*596 FILLER_10_197
*597 FILLER_10_209
*598 FILLER_10_21
*599 FILLER_10_27
*600 FILLER_10_29
*601 FILLER_10_3
*602 FILLER_10_44
*603 FILLER_10_60
*604 FILLER_10_72
*605 FILLER_10_82
*606 FILLER_10_91
*607 FILLER_10_99
*608 FILLER_11_100
*609 FILLER_11_108
*610 FILLER_11_113
*611 FILLER_11_140
*612 FILLER_11_167
*613 FILLER_11_169
*614 FILLER_11_181
*615 FILLER_11_193
*616 FILLER_11_205
*617 FILLER_11_213
*618 FILLER_11_27
*619 FILLER_11_55
*620 FILLER_11_6
*621 FILLER_11_65
*622 FILLER_11_96
*623 FILLER_12_105
*624 FILLER_12_11
*625 FILLER_12_114
*626 FILLER_12_126
*627 FILLER_12_138
*628 FILLER_12_15
*629 FILLER_12_161
*630 FILLER_12_176
*631 FILLER_12_184
*632 FILLER_12_194
*633 FILLER_12_197
*634 FILLER_12_205
*635 FILLER_12_210
*636 FILLER_12_214
*637 FILLER_12_27
*638 FILLER_12_29
*639 FILLER_12_3
*640 FILLER_12_50
*641 FILLER_12_60
*642 FILLER_12_72
*643 FILLER_12_92
*644 FILLER_13_100
*645 FILLER_13_116
*646 FILLER_13_128
*647 FILLER_13_155
*648 FILLER_13_167
*649 FILLER_13_189
*650 FILLER_13_23
*651 FILLER_13_35
*652 FILLER_13_50
*653 FILLER_13_64
*654 FILLER_13_76
*655 FILLER_13_88
*656 FILLER_14_100
*657 FILLER_14_106
*658 FILLER_14_115
*659 FILLER_14_139
*660 FILLER_14_151
*661 FILLER_14_18
*662 FILLER_14_183
*663 FILLER_14_195
*664 FILLER_14_197
*665 FILLER_14_209
*666 FILLER_14_26
*667 FILLER_14_29
*668 FILLER_14_33
*669 FILLER_14_57
*670 FILLER_14_6
*671 FILLER_14_61
*672 FILLER_14_67
*673 FILLER_14_80
*674 FILLER_14_92
*675 FILLER_14_96
*676 FILLER_15_110
*677 FILLER_15_116
*678 FILLER_15_124
*679 FILLER_15_149
*680 FILLER_15_15
*681 FILLER_15_157
*682 FILLER_15_165
*683 FILLER_15_169
*684 FILLER_15_173
*685 FILLER_15_177
*686 FILLER_15_191
*687 FILLER_15_203
*688 FILLER_15_27
*689 FILLER_15_3
*690 FILLER_15_57
*691 FILLER_15_67
*692 FILLER_15_83
*693 FILLER_16_120
*694 FILLER_16_125
*695 FILLER_16_133
*696 FILLER_16_144
*697 FILLER_16_15
*698 FILLER_16_153
*699 FILLER_16_178
*700 FILLER_16_191
*701 FILLER_16_195
*702 FILLER_16_197
*703 FILLER_16_205
*704 FILLER_16_210
*705 FILLER_16_27
*706 FILLER_16_29
*707 FILLER_16_3
*708 FILLER_16_41
*709 FILLER_16_49
*710 FILLER_16_56
*711 FILLER_16_62
*712 FILLER_16_74
*713 FILLER_16_82
*714 FILLER_16_85
*715 FILLER_16_97
*716 FILLER_17_104
*717 FILLER_17_139
*718 FILLER_17_15
*719 FILLER_17_151
*720 FILLER_17_163
*721 FILLER_17_167
*722 FILLER_17_169
*723 FILLER_17_192
*724 FILLER_17_27
*725 FILLER_17_3
*726 FILLER_17_35
*727 FILLER_17_47
*728 FILLER_17_55
*729 FILLER_17_57
*730 FILLER_17_69
*731 FILLER_17_81
*732 FILLER_17_93
*733 FILLER_18_111
*734 FILLER_18_117
*735 FILLER_18_138
*736 FILLER_18_149
*737 FILLER_18_15
*738 FILLER_18_157
*739 FILLER_18_181
*740 FILLER_18_19
*741 FILLER_18_193
*742 FILLER_18_197
*743 FILLER_18_209
*744 FILLER_18_3
*745 FILLER_18_44
*746 FILLER_18_52
*747 FILLER_18_64
*748 FILLER_18_72
*749 FILLER_18_82
*750 FILLER_18_88
*751 FILLER_19_107
*752 FILLER_19_111
*753 FILLER_19_113
*754 FILLER_19_140
*755 FILLER_19_15
*756 FILLER_19_156
*757 FILLER_19_169
*758 FILLER_19_181
*759 FILLER_19_193
*760 FILLER_19_205
*761 FILLER_19_213
*762 FILLER_19_26
*763 FILLER_19_3
*764 FILLER_19_37
*765 FILLER_19_47
*766 FILLER_19_57
*767 FILLER_19_72
*768 FILLER_19_95
*769 FILLER_1_104
*770 FILLER_1_113
*771 FILLER_1_121
*772 FILLER_1_145
*773 FILLER_1_15
*774 FILLER_1_189
*775 FILLER_1_201
*776 FILLER_1_213
*777 FILLER_1_27
*778 FILLER_1_3
*779 FILLER_1_33
*780 FILLER_1_54
*781 FILLER_1_60
*782 FILLER_20_125
*783 FILLER_20_137
*784 FILLER_20_144
*785 FILLER_20_148
*786 FILLER_20_160
*787 FILLER_20_172
*788 FILLER_20_184
*789 FILLER_20_197
*790 FILLER_20_205
*791 FILLER_20_213
*792 FILLER_20_3
*793 FILLER_20_45
*794 FILLER_20_53
*795 FILLER_20_66
*796 FILLER_20_9
*797 FILLER_20_93
*798 FILLER_20_99
*799 FILLER_21_104
*800 FILLER_21_113
*801 FILLER_21_121
*802 FILLER_21_129
*803 FILLER_21_136
*804 FILLER_21_144
*805 FILLER_21_172
*806 FILLER_21_184
*807 FILLER_21_192
*808 FILLER_21_29
*809 FILLER_21_3
*810 FILLER_21_39
*811 FILLER_21_43
*812 FILLER_21_47
*813 FILLER_21_64
*814 FILLER_21_76
*815 FILLER_21_9
*816 FILLER_21_92
*817 FILLER_22_118
*818 FILLER_22_124
*819 FILLER_22_128
*820 FILLER_22_138
*821 FILLER_22_165
*822 FILLER_22_169
*823 FILLER_22_178
*824 FILLER_22_191
*825 FILLER_22_195
*826 FILLER_22_197
*827 FILLER_22_203
*828 FILLER_22_3
*829 FILLER_22_34
*830 FILLER_22_42
*831 FILLER_22_50
*832 FILLER_22_58
*833 FILLER_22_83
*834 FILLER_22_9
*835 FILLER_22_92
*836 FILLER_23_111
*837 FILLER_23_121
*838 FILLER_23_125
*839 FILLER_23_134
*840 FILLER_23_146
*841 FILLER_23_15
*842 FILLER_23_172
*843 FILLER_23_176
*844 FILLER_23_192
*845 FILLER_23_28
*846 FILLER_23_3
*847 FILLER_23_34
*848 FILLER_23_57
*849 FILLER_23_70
*850 FILLER_23_99
*851 FILLER_24_106
*852 FILLER_24_118
*853 FILLER_24_128
*854 FILLER_24_141
*855 FILLER_24_15
*856 FILLER_24_165
*857 FILLER_24_169
*858 FILLER_24_173
*859 FILLER_24_189
*860 FILLER_24_195
*861 FILLER_24_197
*862 FILLER_24_205
*863 FILLER_24_210
*864 FILLER_24_214
*865 FILLER_24_3
*866 FILLER_24_33
*867 FILLER_24_42
*868 FILLER_24_54
*869 FILLER_24_58
*870 FILLER_24_82
*871 FILLER_24_85
*872 FILLER_24_97
*873 FILLER_25_105
*874 FILLER_25_125
*875 FILLER_25_137
*876 FILLER_25_15
*877 FILLER_25_169
*878 FILLER_25_175
*879 FILLER_25_187
*880 FILLER_25_199
*881 FILLER_25_27
*882 FILLER_25_3
*883 FILLER_25_35
*884 FILLER_25_43
*885 FILLER_25_50
*886 FILLER_25_57
*887 FILLER_25_66
*888 FILLER_25_70
*889 FILLER_25_95
*890 FILLER_25_99
*891 FILLER_26_107
*892 FILLER_26_119
*893 FILLER_26_128
*894 FILLER_26_15
*895 FILLER_26_161
*896 FILLER_26_178
*897 FILLER_26_185
*898 FILLER_26_193
*899 FILLER_26_197
*900 FILLER_26_205
*901 FILLER_26_210
*902 FILLER_26_27
*903 FILLER_26_29
*904 FILLER_26_3
*905 FILLER_26_77
*906 FILLER_26_83
*907 FILLER_26_94
*908 FILLER_27_106
*909 FILLER_27_116
*910 FILLER_27_124
*911 FILLER_27_136
*912 FILLER_27_15
*913 FILLER_27_161
*914 FILLER_27_167
*915 FILLER_27_169
*916 FILLER_27_182
*917 FILLER_27_190
*918 FILLER_27_194
*919 FILLER_27_23
*920 FILLER_27_3
*921 FILLER_27_46
*922 FILLER_27_54
*923 FILLER_27_64
*924 FILLER_27_70
*925 FILLER_28_101
*926 FILLER_28_113
*927 FILLER_28_118
*928 FILLER_28_130
*929 FILLER_28_136
*930 FILLER_28_186
*931 FILLER_28_194
*932 FILLER_28_197
*933 FILLER_28_205
*934 FILLER_28_210
*935 FILLER_28_26
*936 FILLER_28_29
*937 FILLER_28_35
*938 FILLER_28_39
*939 FILLER_28_51
*940 FILLER_28_55
*941 FILLER_28_60
*942 FILLER_28_64
*943 FILLER_28_82
*944 FILLER_28_85
*945 FILLER_28_92
*946 FILLER_29_106
*947 FILLER_29_118
*948 FILLER_29_126
*949 FILLER_29_152
*950 FILLER_29_156
*951 FILLER_29_184
*952 FILLER_29_192
*953 FILLER_29_23
*954 FILLER_29_35
*955 FILLER_29_43
*956 FILLER_29_74
*957 FILLER_29_82
*958 FILLER_29_90
*959 FILLER_2_123
*960 FILLER_2_138
*961 FILLER_2_15
*962 FILLER_2_164
*963 FILLER_2_177
*964 FILLER_2_189
*965 FILLER_2_195
*966 FILLER_2_197
*967 FILLER_2_209
*968 FILLER_2_27
*969 FILLER_2_29
*970 FILLER_2_3
*971 FILLER_2_81
*972 FILLER_2_93
*973 FILLER_30_102
*974 FILLER_30_114
*975 FILLER_30_126
*976 FILLER_30_138
*977 FILLER_30_141
*978 FILLER_30_15
*979 FILLER_30_153
*980 FILLER_30_165
*981 FILLER_30_177
*982 FILLER_30_189
*983 FILLER_30_195
*984 FILLER_30_197
*985 FILLER_30_205
*986 FILLER_30_210
*987 FILLER_30_23
*988 FILLER_30_29
*989 FILLER_30_41
*990 FILLER_30_77
*991 FILLER_30_83
*992 FILLER_30_85
*993 FILLER_30_9
*994 FILLER_30_90
*995 FILLER_31_111
*996 FILLER_31_113
*997 FILLER_31_125
*998 FILLER_31_151
*999 FILLER_31_159
*1000 FILLER_31_169
*1001 FILLER_31_176
*1002 FILLER_31_188
*1003 FILLER_31_194
*1004 FILLER_31_34
*1005 FILLER_31_46
*1006 FILLER_31_57
*1007 FILLER_31_6
*1008 FILLER_31_87
*1009 FILLER_31_99
*1010 FILLER_32_109
*1011 FILLER_32_125
*1012 FILLER_32_137
*1013 FILLER_32_141
*1014 FILLER_32_145
*1015 FILLER_32_154
*1016 FILLER_32_179
*1017 FILLER_32_191
*1018 FILLER_32_195
*1019 FILLER_32_197
*1020 FILLER_32_205
*1021 FILLER_32_210
*1022 FILLER_32_26
*1023 FILLER_32_29
*1024 FILLER_32_41
*1025 FILLER_32_48
*1026 FILLER_32_56
*1027 FILLER_32_98
*1028 FILLER_33_107
*1029 FILLER_33_111
*1030 FILLER_33_120
*1031 FILLER_33_128
*1032 FILLER_33_151
*1033 FILLER_33_189
*1034 FILLER_33_54
*1035 FILLER_33_57
*1036 FILLER_33_6
*1037 FILLER_33_65
*1038 FILLER_34_144
*1039 FILLER_34_15
*1040 FILLER_34_153
*1041 FILLER_34_157
*1042 FILLER_34_184
*1043 FILLER_34_197
*1044 FILLER_34_209
*1045 FILLER_34_27
*1046 FILLER_34_3
*1047 FILLER_34_32
*1048 FILLER_34_40
*1049 FILLER_34_64
*1050 FILLER_34_72
*1051 FILLER_34_81
*1052 FILLER_35_100
*1053 FILLER_35_113
*1054 FILLER_35_117
*1055 FILLER_35_121
*1056 FILLER_35_133
*1057 FILLER_35_139
*1058 FILLER_35_141
*1059 FILLER_35_15
*1060 FILLER_35_156
*1061 FILLER_35_169
*1062 FILLER_35_177
*1063 FILLER_35_182
*1064 FILLER_35_189
*1065 FILLER_35_195
*1066 FILLER_35_197
*1067 FILLER_35_209
*1068 FILLER_35_23
*1069 FILLER_35_27
*1070 FILLER_35_29
*1071 FILLER_35_3
*1072 FILLER_35_37
*1073 FILLER_35_41
*1074 FILLER_35_48
*1075 FILLER_35_57
*1076 FILLER_35_69
*1077 FILLER_35_81
*1078 FILLER_35_85
*1079 FILLER_35_94
*1080 FILLER_3_108
*1081 FILLER_3_11
*1082 FILLER_3_113
*1083 FILLER_3_120
*1084 FILLER_3_148
*1085 FILLER_3_15
*1086 FILLER_3_163
*1087 FILLER_3_167
*1088 FILLER_3_169
*1089 FILLER_3_181
*1090 FILLER_3_193
*1091 FILLER_3_205
*1092 FILLER_3_213
*1093 FILLER_3_27
*1094 FILLER_3_3
*1095 FILLER_3_39
*1096 FILLER_3_51
*1097 FILLER_3_55
*1098 FILLER_3_57
*1099 FILLER_3_69
*1100 FILLER_3_77
*1101 FILLER_4_103
*1102 FILLER_4_119
*1103 FILLER_4_135
*1104 FILLER_4_139
*1105 FILLER_4_141
*1106 FILLER_4_153
*1107 FILLER_4_165
*1108 FILLER_4_177
*1109 FILLER_4_189
*1110 FILLER_4_195
*1111 FILLER_4_197
*1112 FILLER_4_209
*1113 FILLER_4_23
*1114 FILLER_4_27
*1115 FILLER_4_29
*1116 FILLER_4_41
*1117 FILLER_4_53
*1118 FILLER_4_59
*1119 FILLER_4_64
*1120 FILLER_4_76
*1121 FILLER_4_85
*1122 FILLER_5_111
*1123 FILLER_5_120
*1124 FILLER_5_132
*1125 FILLER_5_144
*1126 FILLER_5_156
*1127 FILLER_5_169
*1128 FILLER_5_18
*1129 FILLER_5_181
*1130 FILLER_5_193
*1131 FILLER_5_23
*1132 FILLER_5_35
*1133 FILLER_5_47
*1134 FILLER_5_51
*1135 FILLER_5_6
*1136 FILLER_5_90
*1137 FILLER_6_106
*1138 FILLER_6_114
*1139 FILLER_6_120
*1140 FILLER_6_139
*1141 FILLER_6_148
*1142 FILLER_6_152
*1143 FILLER_6_176
*1144 FILLER_6_188
*1145 FILLER_6_197
*1146 FILLER_6_213
*1147 FILLER_6_29
*1148 FILLER_6_41
*1149 FILLER_6_6
*1150 FILLER_6_83
*1151 FILLER_6_98
*1152 FILLER_7_100
*1153 FILLER_7_110
*1154 FILLER_7_116
*1155 FILLER_7_132
*1156 FILLER_7_141
*1157 FILLER_7_147
*1158 FILLER_7_15
*1159 FILLER_7_172
*1160 FILLER_7_180
*1161 FILLER_7_186
*1162 FILLER_7_192
*1163 FILLER_7_40
*1164 FILLER_7_6
*1165 FILLER_7_70
*1166 FILLER_8_105
*1167 FILLER_8_117
*1168 FILLER_8_132
*1169 FILLER_8_195
*1170 FILLER_8_202
*1171 FILLER_8_23
*1172 FILLER_8_27
*1173 FILLER_8_29
*1174 FILLER_8_41
*1175 FILLER_8_53
*1176 FILLER_8_83
*1177 FILLER_8_85
*1178 FILLER_8_93
*1179 FILLER_9_110
*1180 FILLER_9_113
*1181 FILLER_9_119
*1182 FILLER_9_147
*1183 FILLER_9_159
*1184 FILLER_9_167
*1185 FILLER_9_169
*1186 FILLER_9_173
*1187 FILLER_9_18
*1188 FILLER_9_181
*1189 FILLER_9_194
*1190 FILLER_9_206
*1191 FILLER_9_210
*1192 FILLER_9_30
*1193 FILLER_9_42
*1194 FILLER_9_54
*1195 FILLER_9_57
*1196 FILLER_9_6
*1197 FILLER_9_65
*1198 FILLER_9_86
*1199 FILLER_9_98
*1200 PHY_EDGE_ROW_0_Left_36
*1201 PHY_EDGE_ROW_0_Right_0
*1202 PHY_EDGE_ROW_10_Left_46
*1203 PHY_EDGE_ROW_10_Right_10
*1204 PHY_EDGE_ROW_11_Left_47
*1205 PHY_EDGE_ROW_11_Right_11
*1206 PHY_EDGE_ROW_12_Left_48
*1207 PHY_EDGE_ROW_12_Right_12
*1208 PHY_EDGE_ROW_13_Left_49
*1209 PHY_EDGE_ROW_13_Right_13
*1210 PHY_EDGE_ROW_14_Left_50
*1211 PHY_EDGE_ROW_14_Right_14
*1212 PHY_EDGE_ROW_15_Left_51
*1213 PHY_EDGE_ROW_15_Right_15
*1214 PHY_EDGE_ROW_16_Left_52
*1215 PHY_EDGE_ROW_16_Right_16
*1216 PHY_EDGE_ROW_17_Left_53
*1217 PHY_EDGE_ROW_17_Right_17
*1218 PHY_EDGE_ROW_18_Left_54
*1219 PHY_EDGE_ROW_18_Right_18
*1220 PHY_EDGE_ROW_19_Left_55
*1221 PHY_EDGE_ROW_19_Right_19
*1222 PHY_EDGE_ROW_1_Left_37
*1223 PHY_EDGE_ROW_1_Right_1
*1224 PHY_EDGE_ROW_20_Left_56
*1225 PHY_EDGE_ROW_20_Right_20
*1226 PHY_EDGE_ROW_21_Left_57
*1227 PHY_EDGE_ROW_21_Right_21
*1228 PHY_EDGE_ROW_22_Left_58
*1229 PHY_EDGE_ROW_22_Right_22
*1230 PHY_EDGE_ROW_23_Left_59
*1231 PHY_EDGE_ROW_23_Right_23
*1232 PHY_EDGE_ROW_24_Left_60
*1233 PHY_EDGE_ROW_24_Right_24
*1234 PHY_EDGE_ROW_25_Left_61
*1235 PHY_EDGE_ROW_25_Right_25
*1236 PHY_EDGE_ROW_26_Left_62
*1237 PHY_EDGE_ROW_26_Right_26
*1238 PHY_EDGE_ROW_27_Left_63
*1239 PHY_EDGE_ROW_27_Right_27
*1240 PHY_EDGE_ROW_28_Left_64
*1241 PHY_EDGE_ROW_28_Right_28
*1242 PHY_EDGE_ROW_29_Left_65
*1243 PHY_EDGE_ROW_29_Right_29
*1244 PHY_EDGE_ROW_2_Left_38
*1245 PHY_EDGE_ROW_2_Right_2
*1246 PHY_EDGE_ROW_30_Left_66
*1247 PHY_EDGE_ROW_30_Right_30
*1248 PHY_EDGE_ROW_31_Left_67
*1249 PHY_EDGE_ROW_31_Right_31
*1250 PHY_EDGE_ROW_32_Left_68
*1251 PHY_EDGE_ROW_32_Right_32
*1252 PHY_EDGE_ROW_33_Left_69
*1253 PHY_EDGE_ROW_33_Right_33
*1254 PHY_EDGE_ROW_34_Left_70
*1255 PHY_EDGE_ROW_34_Right_34
*1256 PHY_EDGE_ROW_35_Left_71
*1257 PHY_EDGE_ROW_35_Right_35
*1258 PHY_EDGE_ROW_3_Left_39
*1259 PHY_EDGE_ROW_3_Right_3
*1260 PHY_EDGE_ROW_4_Left_40
*1261 PHY_EDGE_ROW_4_Right_4
*1262 PHY_EDGE_ROW_5_Left_41
*1263 PHY_EDGE_ROW_5_Right_5
*1264 PHY_EDGE_ROW_6_Left_42
*1265 PHY_EDGE_ROW_6_Right_6
*1266 PHY_EDGE_ROW_7_Left_43
*1267 PHY_EDGE_ROW_7_Right_7
*1268 PHY_EDGE_ROW_8_Left_44
*1269 PHY_EDGE_ROW_8_Right_8
*1270 PHY_EDGE_ROW_9_Left_45
*1271 PHY_EDGE_ROW_9_Right_9
*1272 TAP_TAPCELL_ROW_0_72
*1273 TAP_TAPCELL_ROW_0_73
*1274 TAP_TAPCELL_ROW_0_74
*1275 TAP_TAPCELL_ROW_0_75
*1276 TAP_TAPCELL_ROW_0_76
*1277 TAP_TAPCELL_ROW_0_77
*1278 TAP_TAPCELL_ROW_0_78
*1279 TAP_TAPCELL_ROW_10_110
*1280 TAP_TAPCELL_ROW_10_111
*1281 TAP_TAPCELL_ROW_10_112
*1282 TAP_TAPCELL_ROW_10_113
*1283 TAP_TAPCELL_ROW_11_114
*1284 TAP_TAPCELL_ROW_11_115
*1285 TAP_TAPCELL_ROW_11_116
*1286 TAP_TAPCELL_ROW_12_117
*1287 TAP_TAPCELL_ROW_12_118
*1288 TAP_TAPCELL_ROW_12_119
*1289 TAP_TAPCELL_ROW_12_120
*1290 TAP_TAPCELL_ROW_13_121
*1291 TAP_TAPCELL_ROW_13_122
*1292 TAP_TAPCELL_ROW_13_123
*1293 TAP_TAPCELL_ROW_14_124
*1294 TAP_TAPCELL_ROW_14_125
*1295 TAP_TAPCELL_ROW_14_126
*1296 TAP_TAPCELL_ROW_14_127
*1297 TAP_TAPCELL_ROW_15_128
*1298 TAP_TAPCELL_ROW_15_129
*1299 TAP_TAPCELL_ROW_15_130
*1300 TAP_TAPCELL_ROW_16_131
*1301 TAP_TAPCELL_ROW_16_132
*1302 TAP_TAPCELL_ROW_16_133
*1303 TAP_TAPCELL_ROW_16_134
*1304 TAP_TAPCELL_ROW_17_135
*1305 TAP_TAPCELL_ROW_17_136
*1306 TAP_TAPCELL_ROW_17_137
*1307 TAP_TAPCELL_ROW_18_138
*1308 TAP_TAPCELL_ROW_18_139
*1309 TAP_TAPCELL_ROW_18_140
*1310 TAP_TAPCELL_ROW_18_141
*1311 TAP_TAPCELL_ROW_19_142
*1312 TAP_TAPCELL_ROW_19_143
*1313 TAP_TAPCELL_ROW_19_144
*1314 TAP_TAPCELL_ROW_1_79
*1315 TAP_TAPCELL_ROW_1_80
*1316 TAP_TAPCELL_ROW_1_81
*1317 TAP_TAPCELL_ROW_20_145
*1318 TAP_TAPCELL_ROW_20_146
*1319 TAP_TAPCELL_ROW_20_147
*1320 TAP_TAPCELL_ROW_20_148
*1321 TAP_TAPCELL_ROW_21_149
*1322 TAP_TAPCELL_ROW_21_150
*1323 TAP_TAPCELL_ROW_21_151
*1324 TAP_TAPCELL_ROW_22_152
*1325 TAP_TAPCELL_ROW_22_153
*1326 TAP_TAPCELL_ROW_22_154
*1327 TAP_TAPCELL_ROW_22_155
*1328 TAP_TAPCELL_ROW_23_156
*1329 TAP_TAPCELL_ROW_23_157
*1330 TAP_TAPCELL_ROW_23_158
*1331 TAP_TAPCELL_ROW_24_159
*1332 TAP_TAPCELL_ROW_24_160
*1333 TAP_TAPCELL_ROW_24_161
*1334 TAP_TAPCELL_ROW_24_162
*1335 TAP_TAPCELL_ROW_25_163
*1336 TAP_TAPCELL_ROW_25_164
*1337 TAP_TAPCELL_ROW_25_165
*1338 TAP_TAPCELL_ROW_26_166
*1339 TAP_TAPCELL_ROW_26_167
*1340 TAP_TAPCELL_ROW_26_168
*1341 TAP_TAPCELL_ROW_26_169
*1342 TAP_TAPCELL_ROW_27_170
*1343 TAP_TAPCELL_ROW_27_171
*1344 TAP_TAPCELL_ROW_27_172
*1345 TAP_TAPCELL_ROW_28_173
*1346 TAP_TAPCELL_ROW_28_174
*1347 TAP_TAPCELL_ROW_28_175
*1348 TAP_TAPCELL_ROW_28_176
*1349 TAP_TAPCELL_ROW_29_177
*1350 TAP_TAPCELL_ROW_29_178
*1351 TAP_TAPCELL_ROW_29_179
*1352 TAP_TAPCELL_ROW_2_82
*1353 TAP_TAPCELL_ROW_2_83
*1354 TAP_TAPCELL_ROW_2_84
*1355 TAP_TAPCELL_ROW_2_85
*1356 TAP_TAPCELL_ROW_30_180
*1357 TAP_TAPCELL_ROW_30_181
*1358 TAP_TAPCELL_ROW_30_182
*1359 TAP_TAPCELL_ROW_30_183
*1360 TAP_TAPCELL_ROW_31_184
*1361 TAP_TAPCELL_ROW_31_185
*1362 TAP_TAPCELL_ROW_31_186
*1363 TAP_TAPCELL_ROW_32_187
*1364 TAP_TAPCELL_ROW_32_188
*1365 TAP_TAPCELL_ROW_32_189
*1366 TAP_TAPCELL_ROW_32_190
*1367 TAP_TAPCELL_ROW_33_191
*1368 TAP_TAPCELL_ROW_33_192
*1369 TAP_TAPCELL_ROW_33_193
*1370 TAP_TAPCELL_ROW_34_194
*1371 TAP_TAPCELL_ROW_34_195
*1372 TAP_TAPCELL_ROW_34_196
*1373 TAP_TAPCELL_ROW_34_197
*1374 TAP_TAPCELL_ROW_35_198
*1375 TAP_TAPCELL_ROW_35_199
*1376 TAP_TAPCELL_ROW_35_200
*1377 TAP_TAPCELL_ROW_35_201
*1378 TAP_TAPCELL_ROW_35_202
*1379 TAP_TAPCELL_ROW_35_203
*1380 TAP_TAPCELL_ROW_35_204
*1381 TAP_TAPCELL_ROW_3_86
*1382 TAP_TAPCELL_ROW_3_87
*1383 TAP_TAPCELL_ROW_3_88
*1384 TAP_TAPCELL_ROW_4_89
*1385 TAP_TAPCELL_ROW_4_90
*1386 TAP_TAPCELL_ROW_4_91
*1387 TAP_TAPCELL_ROW_4_92
*1388 TAP_TAPCELL_ROW_5_93
*1389 TAP_TAPCELL_ROW_5_94
*1390 TAP_TAPCELL_ROW_5_95
*1391 TAP_TAPCELL_ROW_6_96
*1392 TAP_TAPCELL_ROW_6_97
*1393 TAP_TAPCELL_ROW_6_98
*1394 TAP_TAPCELL_ROW_6_99
*1395 TAP_TAPCELL_ROW_7_100
*1396 TAP_TAPCELL_ROW_7_101
*1397 TAP_TAPCELL_ROW_7_102
*1398 TAP_TAPCELL_ROW_8_103
*1399 TAP_TAPCELL_ROW_8_104
*1400 TAP_TAPCELL_ROW_8_105
*1401 TAP_TAPCELL_ROW_8_106
*1402 TAP_TAPCELL_ROW_9_107
*1403 TAP_TAPCELL_ROW_9_108
*1404 TAP_TAPCELL_ROW_9_109
*1405 _382_
*1406 _383_
*1407 _384_
*1408 _385_
*1409 _386_
*1410 _387_
*1411 _388_
*1412 _389_
*1413 _390_
*1414 _391_
*1415 _392_
*1416 _393_
*1417 _394_
*1418 _395_
*1419 _396_
*1420 _397_
*1421 _398_
*1422 _399_
*1423 _400_
*1424 _401_
*1425 _402_
*1426 _403_
*1427 _404_
*1428 _405_
*1429 _406_
*1430 _407_
*1431 _408_
*1432 _409_
*1433 _410_
*1434 _411_
*1435 _412_
*1436 _413_
*1437 _414_
*1438 _415_
*1439 _416_
*1440 _417_
*1441 _418_
*1442 _419_
*1443 _420_
*1444 _421_
*1445 _422_
*1446 _423_
*1447 _424_
*1448 _425_
*1449 _426_
*1450 _427_
*1451 _428_
*1452 _429_
*1453 _430_
*1454 _431_
*1455 _432_
*1456 _433_
*1457 _434_
*1458 _435_
*1459 _436_
*1460 _437_
*1461 _438_
*1462 _439_
*1463 _440_
*1464 _441_
*1465 _442_
*1466 _443_
*1467 _444_
*1468 _445_
*1469 _446_
*1470 _447_
*1471 _448_
*1472 _449_
*1473 _450_
*1474 _451_
*1475 _452_
*1476 _453_
*1477 _454_
*1478 _455_
*1479 _456_
*1480 _457_
*1481 _458_
*1482 _459_
*1483 _460_
*1484 _461_
*1485 _462_
*1486 _463_
*1487 _464_
*1488 _465_
*1489 _466_
*1490 _467_
*1491 _468_
*1492 _469_
*1493 _470_
*1494 _471_
*1495 _472_
*1496 _473_
*1497 _474_
*1498 _475_
*1499 _476_
*1500 _477_
*1501 _478_
*1502 _479_
*1503 _480_
*1504 _481_
*1505 _482_
*1506 _483_
*1507 _484_
*1508 _485_
*1509 _486_
*1510 _487_
*1511 _488_
*1512 _489_
*1513 _490_
*1514 _491_
*1515 _492_
*1516 _493_
*1517 _494_
*1518 _495_
*1519 _496_
*1520 _497_
*1521 _498_
*1522 _499_
*1523 _500_
*1524 _501_
*1525 _502_
*1526 _503_
*1527 _504_
*1528 _505_
*1529 _506_
*1530 _507_
*1531 _508_
*1532 _509_
*1533 _510_
*1534 _511_
*1535 _512_
*1536 _513_
*1537 _514_
*1538 _515_
*1539 _516_
*1540 _517_
*1541 _518_
*1542 _519_
*1543 _520_
*1544 _521_
*1545 _522_
*1546 _523_
*1547 _524_
*1548 _525_
*1549 _526_
*1550 _527_
*1551 _528_
*1552 _529_
*1553 _530_
*1554 _531_
*1555 _532_
*1556 _533_
*1557 _534_
*1558 _535_
*1559 _536_
*1560 _537_
*1561 _538_
*1562 _539_
*1563 _540_
*1564 _541_
*1565 _542_
*1566 _543_
*1567 _544_
*1568 _545_
*1569 _546_
*1570 _547_
*1571 _548_
*1572 _549_
*1573 _550_
*1574 _551_
*1575 _552_
*1576 _553_
*1577 _554_
*1578 _555_
*1579 _556_
*1580 _557_
*1581 _558_
*1582 _559_
*1583 _560_
*1584 _561_
*1585 _562_
*1586 _563_
*1587 _564_
*1588 _565_
*1589 _566_
*1590 _567_
*1591 _568_
*1592 _569_
*1593 _570_
*1594 _571_
*1595 _572_
*1596 _573_
*1597 _574_
*1598 _575_
*1599 _576_
*1600 _577_
*1601 _578_
*1602 _579_
*1603 _580_
*1604 _581_
*1605 _582_
*1606 _583_
*1607 _584_
*1608 _585_
*1609 _586_
*1610 _587_
*1611 _588_
*1612 _589_
*1613 _590_
*1614 _591_
*1615 _592_
*1616 _593_
*1617 _594_
*1618 _595_
*1619 _596_
*1620 _597_
*1621 _598_
*1622 _599_
*1623 _600_
*1624 _601_
*1625 _602_
*1626 _603_
*1627 _604_
*1628 _605_
*1629 _606_
*1630 _607_
*1631 _608_
*1632 _609_
*1633 _610_
*1634 _611_
*1635 _612_
*1636 _613_
*1637 _614_
*1638 _615_
*1639 _616_
*1640 _617_
*1641 _618_
*1642 _619_
*1643 _620_
*1644 _621_
*1645 _622_
*1646 _623_
*1647 _624_
*1648 _625_
*1649 _626_
*1650 _627_
*1651 _628_
*1652 _629_
*1653 _630_
*1654 _631_
*1655 _632_
*1656 _633_
*1657 _634_
*1658 _635_
*1659 _636_
*1660 _637_
*1661 _638_
*1662 _639_
*1663 _640_
*1664 _641_
*1665 _642_
*1666 _643_
*1667 _644_
*1668 _645_
*1669 _646_
*1670 _647_
*1671 _648_
*1672 _649_
*1673 _650_
*1674 _651_
*1675 _652_
*1676 _653_
*1677 _654_
*1678 _655_
*1679 _656_
*1680 _657_
*1681 _658_
*1682 _659_
*1683 _660_
*1684 _661_
*1685 _662_
*1686 _663_
*1687 _664_
*1688 _665_
*1689 _666_
*1690 _667_
*1691 _668_
*1692 _669_
*1693 _670_
*1694 _671_
*1695 _672_
*1696 _673_
*1697 _674_
*1698 _675_
*1699 _676_
*1700 _677_
*1701 _678_
*1702 _679_
*1703 _680_
*1704 _681_
*1705 _682_
*1706 _683_
*1707 _684_
*1708 _685_
*1709 _686_
*1710 _687_
*1711 _688_
*1712 _689_
*1713 _690_
*1714 _691_
*1715 _692_
*1716 _693_
*1717 _694_
*1718 _695_
*1719 _696_
*1720 _697_
*1721 _698_
*1722 _699_
*1723 _700_
*1724 _701_
*1725 _702_
*1726 _703_
*1727 _704_
*1728 _705_
*1729 _706_
*1730 _707_
*1731 _708_
*1732 _709_
*1733 _710_
*1734 _711_
*1735 _712_
*1736 _713_
*1737 _714_
*1738 _715_
*1739 _716_
*1740 _717_
*1741 _718_
*1742 _719_
*1743 _720_
*1744 _721_
*1745 _722_
*1746 _723_
*1747 _724_
*1748 _725_
*1749 _726_
*1750 _727_
*1751 _728_
*1752 _729_
*1753 _730_
*1754 _731_
*1755 _732_
*1756 _733_
*1757 _734_
*1758 _735_
*1759 _736_
*1760 _737_
*1761 _738_
*1762 _739_
*1763 _740_
*1764 _741_
*1765 _742_
*1766 _743_
*1767 _744_
*1768 _745_
*1769 _746_
*1770 _747_
*1771 _748_
*1772 _749_
*1773 _750_
*1774 _751_
*1775 _752_
*1776 _753_
*1777 _754_
*1778 _755_
*1779 _756_
*1780 _757_
*1781 _758_
*1782 _759_
*1783 _760_
*1784 _761_
*1785 _762_
*1786 _763_
*1787 _764_
*1788 _765_
*1789 _766_
*1790 _767_
*1791 _768_
*1792 _769_
*1793 _770_
*1794 _771_
*1795 _772_
*1796 _773_
*1797 _774_
*1798 _775_
*1799 _776_
*1800 _777_
*1801 _778_
*1802 _779_
*1803 _780_
*1804 _781_
*1805 _782_
*1806 _783_
*1807 _784_
*1808 _785_
*1809 _786_
*1810 _787_
*1811 _788_
*1812 _789_
*1813 _790_
*1814 _791_
*1815 _792_
*1816 _793_
*1817 _794_
*1818 _795_
*1819 _796_
*1820 _797_
*1821 _798_
*1822 _799_
*1823 _800_
*1824 _801_
*1825 _802_
*1826 _803_
*1827 _804_
*1828 _805_
*1829 _806_
*1830 _807_
*1831 _808_
*1832 _809_
*1833 _810_
*1834 _811_
*1835 _812_
*1836 _813_
*1837 _814_
*1838 _815_
*1839 _816_
*1840 _817_
*1841 _818_
*1842 _819_
*1843 _820_
*1844 _821_
*1845 _822_
*1846 _823_
*1847 _824_
*1848 _825_
*1849 _826_
*1850 _827_