*SPEF "ieee 1481-1999"
*DESIGN "mult"
*DATE "00:40:08 Tuesday November 25, 2025"
*VENDOR "The OpenROAD Project"
*PROGRAM "OpenROAD"
*VERSION "edf00dff99f6c40d67a30c0e22a8191c5d2ed9d6"
*DESIGN_FLOW "NAME_SCOPE LOCAL" "PIN_CAP NONE"
*DIVIDER /
*DELIMITER :
*BUS_DELIMITER []
*T_UNIT 1 NS
*C_UNIT 1 PF
*R_UNIT 1 OHM
*L_UNIT 1 HENRY

*NAME_MAP
*3 a[0]
*4 a[1]
*5 a[2]
*6 a[3]
*7 a[4]
*8 a[5]
*9 a[6]
*10 a[7]
*11 b[0]
*12 b[1]
*13 b[2]
*14 b[3]
*15 b[4]
*16 b[5]
*17 b[6]
*18 b[7]
*19 clk
*20 product[0]
*21 product[10]
*22 product[11]
*23 product[12]
*24 product[13]
*25 product[14]
*26 product[15]
*27 product[1]
*28 product[2]
*29 product[3]
*30 product[4]
*31 product[5]
*32 product[6]
*33 product[7]
*34 product[8]
*35 product[9]
*36 rst
*37 _000_
*38 _001_
*39 _002_
*40 _003_
*41 _004_
*42 _005_
*43 _006_
*44 _007_
*45 _008_
*46 _009_
*47 _010_
*48 _011_
*49 _012_
*50 _013_
*51 _014_
*52 _015_
*53 _016_
*54 _017_
*55 _018_
*56 _019_
*57 _020_
*58 _021_
*59 _022_
*60 _023_
*61 _024_
*62 _025_
*63 _026_
*64 _027_
*65 _028_
*66 _029_
*67 _030_
*68 _031_
*69 _032_
*70 _033_
*71 _034_
*72 _035_
*73 _036_
*74 _037_
*75 _038_
*76 _039_
*77 _040_
*78 _041_
*79 _042_
*80 _043_
*81 _044_
*82 _045_
*83 _046_
*84 _047_
*85 _048_
*86 _049_
*87 _050_
*88 _051_
*89 _052_
*90 _053_
*91 _054_
*92 _055_
*93 _056_
*94 _057_
*95 _058_
*96 _059_
*97 _060_
*98 _061_
*99 _062_
*100 _063_
*101 _064_
*102 _065_
*103 _066_
*104 _067_
*105 _068_
*106 _069_
*107 _070_
*108 _071_
*109 _072_
*110 _073_
*111 _074_
*112 _075_
*113 _076_
*114 _077_
*115 _078_
*116 _079_
*117 _080_
*118 _081_
*119 _082_
*120 _083_
*121 _084_
*122 _085_
*123 _086_
*124 _087_
*125 _088_
*126 _089_
*127 _090_
*128 _091_
*129 _092_
*130 _093_
*131 _094_
*132 _095_
*133 _096_
*134 _097_
*135 _098_
*136 _099_
*137 _100_
*138 _101_
*139 _102_
*140 _103_
*141 _104_
*142 _105_
*143 _106_
*144 _107_
*145 _108_
*146 _109_
*147 _110_
*148 _111_
*149 _112_
*150 _113_
*151 _114_
*152 _115_
*153 _116_
*154 _117_
*155 _118_
*156 _119_
*157 _120_
*158 _121_
*159 _122_
*160 _123_
*161 _124_
*162 _125_
*163 _126_
*164 _127_
*165 _128_
*166 _129_
*167 _130_
*168 _131_
*169 _132_
*170 _133_
*171 _134_
*172 _135_
*173 _136_
*174 _137_
*175 _138_
*176 _139_
*177 _140_
*178 _141_
*179 _142_
*180 _143_
*181 _144_
*182 _145_
*183 _146_
*184 _147_
*185 _148_
*186 _149_
*187 _150_
*188 _151_
*189 _152_
*190 _153_
*191 _154_
*192 _155_
*193 _156_
*194 _157_
*195 _158_
*196 _159_
*197 _160_
*198 _161_
*199 _162_
*200 _163_
*201 _164_
*202 _165_
*203 _166_
*204 _167_
*205 _168_
*206 _169_
*207 _170_
*208 _171_
*209 _172_
*210 _173_
*211 _174_
*212 _175_
*213 _176_
*214 _177_
*215 _178_
*216 _179_
*217 _180_
*218 _181_
*219 _182_
*220 _183_
*221 _184_
*222 _185_
*223 _186_
*224 _187_
*225 _188_
*226 _189_
*227 _190_
*228 _191_
*229 _192_
*230 _193_
*231 _194_
*232 _195_
*233 _196_
*234 _197_
*235 _198_
*236 _199_
*237 _200_
*238 _201_
*239 _202_
*240 _203_
*241 _204_
*242 _205_
*243 _206_
*244 _207_
*245 _208_
*246 _209_
*247 _210_
*248 _211_
*249 _212_
*250 _213_
*251 _214_
*252 _215_
*253 _216_
*254 _217_
*255 _218_
*256 _219_
*257 _220_
*258 _221_
*259 _222_
*260 _223_
*261 _224_
*262 _225_
*263 _226_
*264 _227_
*265 _228_
*266 _229_
*267 _230_
*268 _231_
*269 _232_
*270 _233_
*271 _234_
*272 _235_
*273 _236_
*274 _237_
*275 _238_
*276 _239_
*277 _240_
*278 _241_
*279 _242_
*280 _243_
*281 _244_
*282 _245_
*283 _246_
*284 _247_
*285 _248_
*286 _249_
*287 _250_
*288 _251_
*289 _252_
*290 _253_
*291 _254_
*292 _255_
*293 _256_
*294 _257_
*295 _258_
*296 _259_
*297 _260_
*298 _261_
*299 _262_
*300 _263_
*301 _264_
*302 _265_
*303 _266_
*304 _267_
*305 _268_
*306 _269_
*307 _270_
*308 _271_
*309 _272_
*310 _273_
*311 _274_
*312 _275_
*313 _276_
*314 _277_
*315 _278_
*316 _279_
*317 _280_
*318 _281_
*319 _282_
*320 _283_
*321 _284_
*322 _285_
*323 _286_
*324 _287_
*325 _288_
*326 _289_
*327 _290_
*328 _291_
*329 _292_
*330 _293_
*331 _294_
*332 _295_
*333 _296_
*334 _297_
*335 _298_
*336 _299_
*337 _300_
*338 _301_
*339 _302_
*340 _303_
*341 _304_
*342 _305_
*343 _306_
*344 _307_
*345 _308_
*346 _309_
*347 _310_
*348 _311_
*349 _312_
*350 _313_
*351 _314_
*352 _315_
*353 _316_
*354 _317_
*355 _318_
*356 _319_
*357 _320_
*358 a_reg\[0\]
*359 a_reg\[1\]
*360 a_reg\[2\]
*361 a_reg\[3\]
*362 a_reg\[4\]
*363 a_reg\[5\]
*364 a_reg\[6\]
*365 a_reg\[7\]
*366 b_reg\[0\]
*367 b_reg\[1\]
*368 b_reg\[2\]
*369 b_reg\[3\]
*370 b_reg\[4\]
*371 b_reg\[5\]
*372 b_reg\[6\]
*373 b_reg\[7\]
*374 clknet_0_clk
*375 clknet_2_0__leaf_clk
*376 clknet_2_1__leaf_clk
*377 clknet_2_2__leaf_clk
*378 clknet_2_3__leaf_clk
*379 net1
*380 net10
*381 net11
*382 net12
*383 net13
*384 net14
*385 net15
*386 net16
*387 net17
*388 net18
*389 net19
*390 net2
*391 net20
*392 net21
*393 net22
*394 net23
*395 net24
*396 net25
*397 net26
*398 net27
*399 net28
*400 net29
*401 net3
*402 net30
*403 net31
*404 net32
*405 net33
*406 net34
*407 net35
*408 net36
*409 net37
*410 net38
*411 net39
*412 net4
*413 net40
*414 net41
*415 net42
*416 net43
*417 net44
*418 net45
*419 net46
*420 net47
*421 net48
*422 net49
*423 net5
*424 net50
*425 net51
*426 net52
*427 net53
*428 net54
*429 net55
*430 net56
*431 net57
*432 net58
*433 net59
*434 net6
*435 net60
*436 net61
*437 net62
*438 net63
*439 net64
*440 net65
*441 net66
*442 net7
*443 net8
*444 net9
*445 product_reg\[0\]
*446 product_reg\[10\]
*447 product_reg\[11\]
*448 product_reg\[12\]
*449 product_reg\[13\]
*450 product_reg\[14\]
*451 product_reg\[15\]
*452 product_reg\[1\]
*453 product_reg\[2\]
*454 product_reg\[3\]
*455 product_reg\[4\]
*456 product_reg\[5\]
*457 product_reg\[6\]
*458 product_reg\[7\]
*459 product_reg\[8\]
*460 product_reg\[9\]
*461 FILLER_0_111
*462 FILLER_0_116
*463 FILLER_0_124
*464 FILLER_0_129
*465 FILLER_0_135
*466 FILLER_0_141
*467 FILLER_0_147
*468 FILLER_0_15
*469 FILLER_0_154
*470 FILLER_0_166
*471 FILLER_0_169
*472 FILLER_0_181
*473 FILLER_0_27
*474 FILLER_0_29
*475 FILLER_0_3
*476 FILLER_0_41
*477 FILLER_0_48
*478 FILLER_0_55
*479 FILLER_0_57
*480 FILLER_0_62
*481 FILLER_0_70
*482 FILLER_0_78
*483 FILLER_0_83
*484 FILLER_10_118
*485 FILLER_10_130
*486 FILLER_10_134
*487 FILLER_10_139
*488 FILLER_10_141
*489 FILLER_10_154
*490 FILLER_10_16
*491 FILLER_10_166
*492 FILLER_10_178
*493 FILLER_10_184
*494 FILLER_10_22
*495 FILLER_10_46
*496 FILLER_10_82
*497 FILLER_10_85
*498 FILLER_10_9
*499 FILLER_11_104
*500 FILLER_11_123
*501 FILLER_11_145
*502 FILLER_11_162
*503 FILLER_11_169
*504 FILLER_11_181
*505 FILLER_11_23
*506 FILLER_11_41
*507 FILLER_11_53
*508 FILLER_11_57
*509 FILLER_11_69
*510 FILLER_11_81
*511 FILLER_11_87
*512 FILLER_12_111
*513 FILLER_12_121
*514 FILLER_12_133
*515 FILLER_12_139
*516 FILLER_12_141
*517 FILLER_12_153
*518 FILLER_12_172
*519 FILLER_12_184
*520 FILLER_12_188
*521 FILLER_12_23
*522 FILLER_12_27
*523 FILLER_12_29
*524 FILLER_12_34
*525 FILLER_12_42
*526 FILLER_12_48
*527 FILLER_12_60
*528 FILLER_12_68
*529 FILLER_12_76
*530 FILLER_12_85
*531 FILLER_12_97
*532 FILLER_13_10
*533 FILLER_13_111
*534 FILLER_13_127
*535 FILLER_13_143
*536 FILLER_13_150
*537 FILLER_13_164
*538 FILLER_13_169
*539 FILLER_13_17
*540 FILLER_13_181
*541 FILLER_13_24
*542 FILLER_13_30
*543 FILLER_13_6
*544 FILLER_13_60
*545 FILLER_13_81
*546 FILLER_13_91
*547 FILLER_13_99
*548 FILLER_14_118
*549 FILLER_14_130
*550 FILLER_14_138
*551 FILLER_14_141
*552 FILLER_14_151
*553 FILLER_14_173
*554 FILLER_14_181
*555 FILLER_14_23
*556 FILLER_14_41
*557 FILLER_14_45
*558 FILLER_14_56
*559 FILLER_14_80
*560 FILLER_14_85
*561 FILLER_14_95
*562 FILLER_15_107
*563 FILLER_15_120
*564 FILLER_15_137
*565 FILLER_15_144
*566 FILLER_15_156
*567 FILLER_15_163
*568 FILLER_15_18
*569 FILLER_15_30
*570 FILLER_15_38
*571 FILLER_15_45
*572 FILLER_15_53
*573 FILLER_15_57
*574 FILLER_15_6
*575 FILLER_15_61
*576 FILLER_15_69
*577 FILLER_15_77
*578 FILLER_16_11
*579 FILLER_16_111
*580 FILLER_16_115
*581 FILLER_16_121
*582 FILLER_16_131
*583 FILLER_16_139
*584 FILLER_16_152
*585 FILLER_16_178
*586 FILLER_16_186
*587 FILLER_16_3
*588 FILLER_16_32
*589 FILLER_16_38
*590 FILLER_16_47
*591 FILLER_16_59
*592 FILLER_16_71
*593 FILLER_16_79
*594 FILLER_16_99
*595 FILLER_17_109
*596 FILLER_17_113
*597 FILLER_17_125
*598 FILLER_17_132
*599 FILLER_17_144
*600 FILLER_17_156
*601 FILLER_17_160
*602 FILLER_17_166
*603 FILLER_17_176
*604 FILLER_17_185
*605 FILLER_17_24
*606 FILLER_17_3
*607 FILLER_17_30
*608 FILLER_17_44
*609 FILLER_17_52
*610 FILLER_17_64
*611 FILLER_17_7
*612 FILLER_17_71
*613 FILLER_17_83
*614 FILLER_17_90
*615 FILLER_18_109
*616 FILLER_18_121
*617 FILLER_18_133
*618 FILLER_18_139
*619 FILLER_18_141
*620 FILLER_18_150
*621 FILLER_18_162
*622 FILLER_18_168
*623 FILLER_18_27
*624 FILLER_18_3
*625 FILLER_18_32
*626 FILLER_18_51
*627 FILLER_18_73
*628 FILLER_18_79
*629 FILLER_18_83
*630 FILLER_18_85
*631 FILLER_18_97
*632 FILLER_19_101
*633 FILLER_19_107
*634 FILLER_19_113
*635 FILLER_19_123
*636 FILLER_19_129
*637 FILLER_19_141
*638 FILLER_19_15
*639 FILLER_19_153
*640 FILLER_19_159
*641 FILLER_19_167
*642 FILLER_19_169
*643 FILLER_19_181
*644 FILLER_19_25
*645 FILLER_19_3
*646 FILLER_19_33
*647 FILLER_19_41
*648 FILLER_19_53
*649 FILLER_19_57
*650 FILLER_19_79
*651 FILLER_19_95
*652 FILLER_1_113
*653 FILLER_1_15
*654 FILLER_1_155
*655 FILLER_1_167
*656 FILLER_1_169
*657 FILLER_1_181
*658 FILLER_1_27
*659 FILLER_1_3
*660 FILLER_1_39
*661 FILLER_1_50
*662 FILLER_1_80
*663 FILLER_1_86
*664 FILLER_20_11
*665 FILLER_20_166
*666 FILLER_20_178
*667 FILLER_20_26
*668 FILLER_20_29
*669 FILLER_20_3
*670 FILLER_20_33
*671 FILLER_20_51
*672 FILLER_20_63
*673 FILLER_20_76
*674 FILLER_20_83
*675 FILLER_20_85
*676 FILLER_20_98
*677 FILLER_21_109
*678 FILLER_21_113
*679 FILLER_21_139
*680 FILLER_21_151
*681 FILLER_21_166
*682 FILLER_21_27
*683 FILLER_21_3
*684 FILLER_21_39
*685 FILLER_21_51
*686 FILLER_21_55
*687 FILLER_21_57
*688 FILLER_21_69
*689 FILLER_21_7
*690 FILLER_21_97
*691 FILLER_22_106
*692 FILLER_22_11
*693 FILLER_22_124
*694 FILLER_22_128
*695 FILLER_22_141
*696 FILLER_22_153
*697 FILLER_22_162
*698 FILLER_22_174
*699 FILLER_22_182
*700 FILLER_22_27
*701 FILLER_22_29
*702 FILLER_22_3
*703 FILLER_22_56
*704 FILLER_22_60
*705 FILLER_22_73
*706 FILLER_22_81
*707 FILLER_22_98
*708 FILLER_23_100
*709 FILLER_23_113
*710 FILLER_23_122
*711 FILLER_23_131
*712 FILLER_23_143
*713 FILLER_23_155
*714 FILLER_23_167
*715 FILLER_23_169
*716 FILLER_23_181
*717 FILLER_23_33
*718 FILLER_23_45
*719 FILLER_23_51
*720 FILLER_23_55
*721 FILLER_23_64
*722 FILLER_23_76
*723 FILLER_23_88
*724 FILLER_24_101
*725 FILLER_24_113
*726 FILLER_24_123
*727 FILLER_24_13
*728 FILLER_24_135
*729 FILLER_24_139
*730 FILLER_24_148
*731 FILLER_24_160
*732 FILLER_24_172
*733 FILLER_24_176
*734 FILLER_24_180
*735 FILLER_24_188
*736 FILLER_24_26
*737 FILLER_24_29
*738 FILLER_24_33
*739 FILLER_24_44
*740 FILLER_24_56
*741 FILLER_24_6
*742 FILLER_24_64
*743 FILLER_24_90
*744 FILLER_25_113
*745 FILLER_25_128
*746 FILLER_25_145
*747 FILLER_25_15
*748 FILLER_25_155
*749 FILLER_25_167
*750 FILLER_25_27
*751 FILLER_25_3
*752 FILLER_25_39
*753 FILLER_25_51
*754 FILLER_25_55
*755 FILLER_25_57
*756 FILLER_25_65
*757 FILLER_25_75
*758 FILLER_25_96
*759 FILLER_26_134
*760 FILLER_26_14
*761 FILLER_26_141
*762 FILLER_26_153
*763 FILLER_26_165
*764 FILLER_26_177
*765 FILLER_26_181
*766 FILLER_26_20
*767 FILLER_26_29
*768 FILLER_26_54
*769 FILLER_26_66
*770 FILLER_26_7
*771 FILLER_26_78
*772 FILLER_26_85
*773 FILLER_26_97
*774 FILLER_27_101
*775 FILLER_27_109
*776 FILLER_27_113
*777 FILLER_27_125
*778 FILLER_27_129
*779 FILLER_27_137
*780 FILLER_27_149
*781 FILLER_27_161
*782 FILLER_27_167
*783 FILLER_27_23
*784 FILLER_27_49
*785 FILLER_27_55
*786 FILLER_27_85
*787 FILLER_27_92
*788 FILLER_28_109
*789 FILLER_28_121
*790 FILLER_28_133
*791 FILLER_28_139
*792 FILLER_28_141
*793 FILLER_28_15
*794 FILLER_28_153
*795 FILLER_28_165
*796 FILLER_28_177
*797 FILLER_28_27
*798 FILLER_28_29
*799 FILLER_28_3
*800 FILLER_28_37
*801 FILLER_28_45
*802 FILLER_28_66
*803 FILLER_28_78
*804 FILLER_28_85
*805 FILLER_28_94
*806 FILLER_28_98
*807 FILLER_29_104
*808 FILLER_29_108
*809 FILLER_29_113
*810 FILLER_29_121
*811 FILLER_29_126
*812 FILLER_29_138
*813 FILLER_29_15
*814 FILLER_29_150
*815 FILLER_29_162
*816 FILLER_29_169
*817 FILLER_29_181
*818 FILLER_29_27
*819 FILLER_29_3
*820 FILLER_29_39
*821 FILLER_29_51
*822 FILLER_29_55
*823 FILLER_29_57
*824 FILLER_29_69
*825 FILLER_29_92
*826 FILLER_2_108
*827 FILLER_2_133
*828 FILLER_2_139
*829 FILLER_2_141
*830 FILLER_2_15
*831 FILLER_2_155
*832 FILLER_2_167
*833 FILLER_2_27
*834 FILLER_2_29
*835 FILLER_2_3
*836 FILLER_2_41
*837 FILLER_2_83
*838 FILLER_2_88
*839 FILLER_30_132
*840 FILLER_30_141
*841 FILLER_30_15
*842 FILLER_30_153
*843 FILLER_30_165
*844 FILLER_30_177
*845 FILLER_30_27
*846 FILLER_30_29
*847 FILLER_30_3
*848 FILLER_30_60
*849 FILLER_30_72
*850 FILLER_30_88
*851 FILLER_31_110
*852 FILLER_31_113
*853 FILLER_31_119
*854 FILLER_31_131
*855 FILLER_31_135
*856 FILLER_31_141
*857 FILLER_31_15
*858 FILLER_31_153
*859 FILLER_31_165
*860 FILLER_31_169
*861 FILLER_31_181
*862 FILLER_31_27
*863 FILLER_31_29
*864 FILLER_31_3
*865 FILLER_31_41
*866 FILLER_31_53
*867 FILLER_31_57
*868 FILLER_31_63
*869 FILLER_31_70
*870 FILLER_31_82
*871 FILLER_31_85
*872 FILLER_31_93
*873 FILLER_31_98
*874 FILLER_3_105
*875 FILLER_3_11
*876 FILLER_3_110
*877 FILLER_3_113
*878 FILLER_3_139
*879 FILLER_3_146
*880 FILLER_3_15
*881 FILLER_3_158
*882 FILLER_3_174
*883 FILLER_3_178
*884 FILLER_3_27
*885 FILLER_3_3
*886 FILLER_3_34
*887 FILLER_3_57
*888 FILLER_3_69
*889 FILLER_3_93
*890 FILLER_4_100
*891 FILLER_4_119
*892 FILLER_4_131
*893 FILLER_4_139
*894 FILLER_4_148
*895 FILLER_4_160
*896 FILLER_4_172
*897 FILLER_4_184
*898 FILLER_4_23
*899 FILLER_4_27
*900 FILLER_4_49
*901 FILLER_4_61
*902 FILLER_4_73
*903 FILLER_4_81
*904 FILLER_4_85
*905 FILLER_5_108
*906 FILLER_5_113
*907 FILLER_5_121
*908 FILLER_5_133
*909 FILLER_5_139
*910 FILLER_5_152
*911 FILLER_5_167
*912 FILLER_5_172
*913 FILLER_5_180
*914 FILLER_5_32
*915 FILLER_5_44
*916 FILLER_5_57
*917 FILLER_5_6
*918 FILLER_5_69
*919 FILLER_5_77
*920 FILLER_5_81
*921 FILLER_6_100
*922 FILLER_6_115
*923 FILLER_6_127
*924 FILLER_6_139
*925 FILLER_6_141
*926 FILLER_6_15
*927 FILLER_6_163
*928 FILLER_6_27
*929 FILLER_6_29
*930 FILLER_6_38
*931 FILLER_6_49
*932 FILLER_6_63
*933 FILLER_6_75
*934 FILLER_6_81
*935 FILLER_6_85
*936 FILLER_6_9
*937 FILLER_6_93
*938 FILLER_7_100
*939 FILLER_7_110
*940 FILLER_7_113
*941 FILLER_7_125
*942 FILLER_7_137
*943 FILLER_7_150
*944 FILLER_7_165
*945 FILLER_7_169
*946 FILLER_7_181
*947 FILLER_7_23
*948 FILLER_7_55
*949 FILLER_7_57
*950 FILLER_7_69
*951 FILLER_7_77
*952 FILLER_7_85
*953 FILLER_7_96
*954 FILLER_8_107
*955 FILLER_8_120
*956 FILLER_8_132
*957 FILLER_8_15
*958 FILLER_8_151
*959 FILLER_8_159
*960 FILLER_8_164
*961 FILLER_8_174
*962 FILLER_8_185
*963 FILLER_8_20
*964 FILLER_8_29
*965 FILLER_8_3
*966 FILLER_8_35
*967 FILLER_8_40
*968 FILLER_8_48
*969 FILLER_8_56
*970 FILLER_8_64
*971 FILLER_8_78
*972 FILLER_8_83
*973 FILLER_8_85
*974 FILLER_8_89
*975 FILLER_9_111
*976 FILLER_9_129
*977 FILLER_9_135
*978 FILLER_9_143
*979 FILLER_9_155
*980 FILLER_9_163
*981 FILLER_9_26
*982 FILLER_9_46
*983 FILLER_9_63
*984 FILLER_9_82
*985 PHY_EDGE_ROW_0_Left_32
*986 PHY_EDGE_ROW_0_Right_0
*987 PHY_EDGE_ROW_10_Left_42
*988 PHY_EDGE_ROW_10_Right_10
*989 PHY_EDGE_ROW_11_Left_43
*990 PHY_EDGE_ROW_11_Right_11
*991 PHY_EDGE_ROW_12_Left_44
*992 PHY_EDGE_ROW_12_Right_12
*993 PHY_EDGE_ROW_13_Left_45
*994 PHY_EDGE_ROW_13_Right_13
*995 PHY_EDGE_ROW_14_Left_46
*996 PHY_EDGE_ROW_14_Right_14
*997 PHY_EDGE_ROW_15_Left_47
*998 PHY_EDGE_ROW_15_Right_15
*999 PHY_EDGE_ROW_16_Left_48
*1000 PHY_EDGE_ROW_16_Right_16
*1001 PHY_EDGE_ROW_17_Left_49
*1002 PHY_EDGE_ROW_17_Right_17
*1003 PHY_EDGE_ROW_18_Left_50
*1004 PHY_EDGE_ROW_18_Right_18
*1005 PHY_EDGE_ROW_19_Left_51
*1006 PHY_EDGE_ROW_19_Right_19
*1007 PHY_EDGE_ROW_1_Left_33
*1008 PHY_EDGE_ROW_1_Right_1
*1009 PHY_EDGE_ROW_20_Left_52
*1010 PHY_EDGE_ROW_20_Right_20
*1011 PHY_EDGE_ROW_21_Left_53
*1012 PHY_EDGE_ROW_21_Right_21
*1013 PHY_EDGE_ROW_22_Left_54
*1014 PHY_EDGE_ROW_22_Right_22
*1015 PHY_EDGE_ROW_23_Left_55
*1016 PHY_EDGE_ROW_23_Right_23
*1017 PHY_EDGE_ROW_24_Left_56
*1018 PHY_EDGE_ROW_24_Right_24
*1019 PHY_EDGE_ROW_25_Left_57
*1020 PHY_EDGE_ROW_25_Right_25
*1021 PHY_EDGE_ROW_26_Left_58
*1022 PHY_EDGE_ROW_26_Right_26
*1023 PHY_EDGE_ROW_27_Left_59
*1024 PHY_EDGE_ROW_27_Right_27
*1025 PHY_EDGE_ROW_28_Left_60
*1026 PHY_EDGE_ROW_28_Right_28
*1027 PHY_EDGE_ROW_29_Left_61
*1028 PHY_EDGE_ROW_29_Right_29
*1029 PHY_EDGE_ROW_2_Left_34
*1030 PHY_EDGE_ROW_2_Right_2
*1031 PHY_EDGE_ROW_30_Left_62
*1032 PHY_EDGE_ROW_30_Right_30
*1033 PHY_EDGE_ROW_31_Left_63
*1034 PHY_EDGE_ROW_31_Right_31
*1035 PHY_EDGE_ROW_3_Left_35
*1036 PHY_EDGE_ROW_3_Right_3
*1037 PHY_EDGE_ROW_4_Left_36
*1038 PHY_EDGE_ROW_4_Right_4
*1039 PHY_EDGE_ROW_5_Left_37
*1040 PHY_EDGE_ROW_5_Right_5
*1041 PHY_EDGE_ROW_6_Left_38
*1042 PHY_EDGE_ROW_6_Right_6
*1043 PHY_EDGE_ROW_7_Left_39
*1044 PHY_EDGE_ROW_7_Right_7
*1045 PHY_EDGE_ROW_8_Left_40
*1046 PHY_EDGE_ROW_8_Right_8
*1047 PHY_EDGE_ROW_9_Left_41
*1048 PHY_EDGE_ROW_9_Right_9
*1049 TAP_TAPCELL_ROW_0_64
*1050 TAP_TAPCELL_ROW_0_65
*1051 TAP_TAPCELL_ROW_0_66
*1052 TAP_TAPCELL_ROW_0_67
*1053 TAP_TAPCELL_ROW_0_68
*1054 TAP_TAPCELL_ROW_0_69
*1055 TAP_TAPCELL_ROW_10_97
*1056 TAP_TAPCELL_ROW_10_98
*1057 TAP_TAPCELL_ROW_10_99
*1058 TAP_TAPCELL_ROW_11_100
*1059 TAP_TAPCELL_ROW_11_101
*1060 TAP_TAPCELL_ROW_11_102
*1061 TAP_TAPCELL_ROW_12_103
*1062 TAP_TAPCELL_ROW_12_104
*1063 TAP_TAPCELL_ROW_12_105
*1064 TAP_TAPCELL_ROW_13_106
*1065 TAP_TAPCELL_ROW_13_107
*1066 TAP_TAPCELL_ROW_13_108
*1067 TAP_TAPCELL_ROW_14_109
*1068 TAP_TAPCELL_ROW_14_110
*1069 TAP_TAPCELL_ROW_14_111
*1070 TAP_TAPCELL_ROW_15_112
*1071 TAP_TAPCELL_ROW_15_113
*1072 TAP_TAPCELL_ROW_15_114
*1073 TAP_TAPCELL_ROW_16_115
*1074 TAP_TAPCELL_ROW_16_116
*1075 TAP_TAPCELL_ROW_16_117
*1076 TAP_TAPCELL_ROW_17_118
*1077 TAP_TAPCELL_ROW_17_119
*1078 TAP_TAPCELL_ROW_17_120
*1079 TAP_TAPCELL_ROW_18_121
*1080 TAP_TAPCELL_ROW_18_122
*1081 TAP_TAPCELL_ROW_18_123
*1082 TAP_TAPCELL_ROW_19_124
*1083 TAP_TAPCELL_ROW_19_125
*1084 TAP_TAPCELL_ROW_19_126
*1085 TAP_TAPCELL_ROW_1_70
*1086 TAP_TAPCELL_ROW_1_71
*1087 TAP_TAPCELL_ROW_1_72
*1088 TAP_TAPCELL_ROW_20_127
*1089 TAP_TAPCELL_ROW_20_128
*1090 TAP_TAPCELL_ROW_20_129
*1091 TAP_TAPCELL_ROW_21_130
*1092 TAP_TAPCELL_ROW_21_131
*1093 TAP_TAPCELL_ROW_21_132
*1094 TAP_TAPCELL_ROW_22_133
*1095 TAP_TAPCELL_ROW_22_134
*1096 TAP_TAPCELL_ROW_22_135
*1097 TAP_TAPCELL_ROW_23_136
*1098 TAP_TAPCELL_ROW_23_137
*1099 TAP_TAPCELL_ROW_23_138
*1100 TAP_TAPCELL_ROW_24_139
*1101 TAP_TAPCELL_ROW_24_140
*1102 TAP_TAPCELL_ROW_24_141
*1103 TAP_TAPCELL_ROW_25_142
*1104 TAP_TAPCELL_ROW_25_143
*1105 TAP_TAPCELL_ROW_25_144
*1106 TAP_TAPCELL_ROW_26_145
*1107 TAP_TAPCELL_ROW_26_146
*1108 TAP_TAPCELL_ROW_26_147
*1109 TAP_TAPCELL_ROW_27_148
*1110 TAP_TAPCELL_ROW_27_149
*1111 TAP_TAPCELL_ROW_27_150
*1112 TAP_TAPCELL_ROW_28_151
*1113 TAP_TAPCELL_ROW_28_152
*1114 TAP_TAPCELL_ROW_28_153
*1115 TAP_TAPCELL_ROW_29_154
*1116 TAP_TAPCELL_ROW_29_155
*1117 TAP_TAPCELL_ROW_29_156
*1118 TAP_TAPCELL_ROW_2_73
*1119 TAP_TAPCELL_ROW_2_74
*1120 TAP_TAPCELL_ROW_2_75
*1121 TAP_TAPCELL_ROW_30_157
*1122 TAP_TAPCELL_ROW_30_158
*1123 TAP_TAPCELL_ROW_30_159
*1124 TAP_TAPCELL_ROW_31_160
*1125 TAP_TAPCELL_ROW_31_161
*1126 TAP_TAPCELL_ROW_31_162
*1127 TAP_TAPCELL_ROW_31_163
*1128 TAP_TAPCELL_ROW_31_164
*1129 TAP_TAPCELL_ROW_31_165
*1130 TAP_TAPCELL_ROW_3_76
*1131 TAP_TAPCELL_ROW_3_77
*1132 TAP_TAPCELL_ROW_3_78
*1133 TAP_TAPCELL_ROW_4_79
*1134 TAP_TAPCELL_ROW_4_80
*1135 TAP_TAPCELL_ROW_4_81
*1136 TAP_TAPCELL_ROW_5_82
*1137 TAP_TAPCELL_ROW_5_83
*1138 TAP_TAPCELL_ROW_5_84
*1139 TAP_TAPCELL_ROW_6_85
*1140 TAP_TAPCELL_ROW_6_86
*1141 TAP_TAPCELL_ROW_6_87
*1142 TAP_TAPCELL_ROW_7_88
*1143 TAP_TAPCELL_ROW_7_89
*1144 TAP_TAPCELL_ROW_7_90
*1145 TAP_TAPCELL_ROW_8_91
*1146 TAP_TAPCELL_ROW_8_92
*1147 TAP_TAPCELL_ROW_8_93
*1148 TAP_TAPCELL_ROW_9_94
*1149 TAP_TAPCELL_ROW_9_95
*1150 TAP_TAPCELL_ROW_9_96
*1151 _321_
*1152 _322_
*1153 _323_
*1154 _324_
*1155 _325_
*1156 _326_
*1157 _327_
*1158 _328_
*1159 _329_
*1160 _330_
*1161 _331_
*1162 _332_
*1163 _333_
*1164 _334_
*1165 _335_
*1166 _336_
*1167 _337_
*1168 _338_
*1169 _339_
*1170 _340_
*1171 _341_
*1172 _342_
*1173 _343_
*1174 _344_
*1175 _345_
*1176 _346_
*1177 _347_
*1178 _348_
*1179 _349_
*1180 _350_
*1181 _351_
*1182 _352_
*1183 _353_
*1184 _354_
*1185 _355_
*1186 _356_
*1187 _357_
*1188 _358_
*1189 _359_
*1190 _360_
*1191 _361_
*1192 _362_
*1193 _363_
*1194 _364_
*1195 _365_
*1196 _366_
*1197 _367_
*1198 _368_
*1199 _369_
*1200 _370_
*1201 _371_
*1202 _372_
*1203 _373_
*1204 _374_
*1205 _375_
*1206 _376_
*1207 _377_
*1208 _378_
*1209 _379_
*1210 _380_
*1211 _381_
*1212 _382_
*1213 _383_
*1214 _384_
*1215 _385_
*1216 _386_
*1217 _387_
*1218 _388_
*1219 _389_
*1220 _390_
*1221 _391_
*1222 _392_
*1223 _393_
*1224 _394_
*1225 _395_
*1226 _396_
*1227 _397_
*1228 _398_
*1229 _399_
*1230 _400_
*1231 _401_
*1232 _402_
*1233 _403_
*1234 _404_
*1235 _405_
*1236 _406_
*1237 _407_
*1238 _408_
*1239 _409_
*1240 _410_
*1241 _411_
*1242 _412_
*1243 _413_
*1244 _414_
*1245 _415_
*1246 _416_
*1247 _417_
*1248 _418_
*1249 _419_
*1250 _420_
*1251 _421_
*1252 _422_
*1253 _423_
*1254 _424_
*1255 _425_
*1256 _426_
*1257 _427_
*1258 _428_
*1259 _429_
*1260 _430_
*1261 _431_
*1262 _432_
*1263 _433_
*1264 _434_
*1265 _435_
*1266 _436_
*1267 _437_
*1268 _438_
*1269 _439_
*1270 _440_
*1271 _441_
*1272 _442_
*1273 _443_
*1274 _444_
*1275 _445_
*1276 _446_
*1277 _447_
*1278 _448_
*1279 _449_
*1280 _450_
*1281 _451_
*1282 _452_
*1283 _453_
*1284 _454_
*1285 _455_
*1286 _456_
*1287 _457_
*1288 _458_
*1289 _459_
*1290 _460_
*1291 _461_
*1292 _462_
*1293 _463_
*1294 _464_
*1295 _465_
*1296 _466_
*1297 _467_
*1298 _468_
*1299 _469_
*1300 _470_
*1301 _471_
*1302 _472_
*1303 _473_
*1304 _474_
*1305 _475_
*1306 _476_
*1307 _477_
*1308 _478_
*1309 _479_
*1310 _480_
*1311 _481_
*1312 _482_
*1313 _483_
*1314 _484_
*1315 _485_
*1316 _486_
*1317 _487_
*1318 _488_
*1319 _489_
*1320 _490_
*1321 _491_
*1322 _492_
*1323 _493_
*1324 _494_
*1325 _495_
*1326 _496_
*1327 _497_
*1328 _498_
*1329 _499_
*1330 _500_
*1331 _501_
*1332 _502_
*1333 _503_
*1334 _504_
*1335 _505_
*1336 _506_
*1337 _507_
*1338 _508_
*1339 _509_
*1340 _510_
*1341 _511_
*1342 _512_
*1343 _513_
*1344 _514_
*1345 _515_
*1346 _516_
*1347 _517_
*1348 _518_
*1349 _519_
*1350 _520_
*1351 _521_
*1352 _522_
*1353 _523_
*1354 _524_
*1355 _525_
*1356 _526_
*1357 _527_
*1358 _528_
*1359 _529_
*1360 _530_
*1361 _531_
*1362 _532_
*1363 _533_
*1364 _534_
*1365 _535_
*1366 _536_
*1367 _537_
*1368 _538_
*1369 _539_
*1370 _540_
*1371 _541_
*1372 _542_
*1373 _543_
*1374 _544_
*1375 _545_
*1376 _546_
*1377 _547_
*1378 _548_
*1379 _549_
*1380 _550_
*1381 _551_
*1382 _552_
*1383 _553_
*1384 _554_
*1385 _555_
*1386 _556_
*1387 _557_
*1388 _558_
*1389 _559_
*1390 _560_
*1391 _561_
*1392 _562_
*1393 _563_
*1394 _564_
*1395 _565_
*1396 _566_
*1397 _567_
*1398 _568_
*1399 _569_
*1400 _570_
*1401 _571_
*1402 _572_
*1403 _573_
*1404 _574_
*1405 _575_
*1406 _576_
*1407 _577_
*1408 _578_
*1409 _579_
*1410 _580_
*1411 _581_
*1412 _582_
*1413 _583_
*1414 _584_
*1415 _585_
*1416 _586_
*1417 _587_
*1418 _588_
*1419 _589_
*1420 _590_
*1421 _591_
*1422 _592_
*1423 _593_
*1424 _594_
*1425 _595_
*1426 _596_
*1427 _597_
*1428 _598_
*1429 _599_
*1430 _600_
*1431 _601_
*1432 _602_
*1433 _603_
*1434 _604_
*1435 _605_
*1436 _606_
*1437 _607_
*1438 _608_
*1439 _609_
*1440 _610_
*1441 _611_
*1442 _612_
*1443 _613_
*1444 _614_
*1445 _615_
*1446 _616_
*1447 _617_
*1448 _618_
*1449 _619_
*1450 _620_
*1451 _621_
*1452 _622_
*1453 _623_
*1454 _624_
*1455 _625_
*1456 _626_
*1457 _627_
*1458 _628_
*1459 _629_
*1460 _630_
*1461 _631_
*1462 _632_
*1463 _633_
*1464 _634_
*1465 _635_
*1466 _636_
*1467 _637_
*1468 _638_
*1469 _639_
*1470 _640_
*1471 _641_
*1472 _642_
*1473 _643_
*1474 _644_
*1475 _645_
*1476 _646_
*1477 _647_
*1478 _648_
*1479 _649_
*1480 _650_
*1481 _651_
*1482 _652_
*1483 _653_
*1484 _654_
*1485 _655_
*1486 _656_
*1487 _657_
*1488 _658_
*1489 _659_
*1490 _660_
*1491 _661_
*1492 _662_
*1493 _663_
*1494 _664_
*1495 _665_
*1496 _666_
*1497 _667_
*1498 _668_
*1499 _669_
*1500 _670_
*1501 _671_
*1502 _672_
*1503 _673_
*1504 _674_
*1505 _675_
*1506 _676_
*1507 _677_
*1508 _678_
*1509 _679_
*1510 _680_
*1511 _681_
*1512 _682_
*1513 _683_
*1514 _684_
*1515 _685_
*1516 _686_
*1517 _687_
*1518 _688_
*1519 _689_
*1520 clkbuf_0_clk
*1521 clkbuf_2_0__f_clk
*1522 clkbuf_2_1__f_clk
*1523 clkbuf_2_2__f_clk
*1524 clkbuf_2_3__f_clk
*1525 clkload0
*1526 clkload1
*1527 clkload2
*1528 fanout35
*1529 fanout36
*1530 fanout37
*1531 fanout38
*1532 fanout39
*1533 fanout40
*1534 fanout41
*1535 fanout42
*1536 fanout43
*1537 fanout44
*1538 fanout45
*1539 fanout46
*1540 fanout47
*1541 fanout48
*1542 fanout49
*1543 fanout50
*1544 fanout51
*1545 fanout52
*1546 fanout53
*1547 fanout54
*1548 fanout55
*1549 fanout56
*1550 fanout57
*1551 fanout58
*1552 fanout59
*1553 fanout60
*1554 fanout61
*1555 fanout62
*1556 input1
*1557 input10
*1558 input11
*1559 input12
*1560 input13
*1561 input14
*1562 input15
*1563 input16
*1564 input17
*1565 input2
*1566 input3
*1567 input4
*1568 input5
*1569 input6
*1570 input7
*1571 input8
*1572 input9
*1573 max_cap34
*1574 output18
*1575 output19
*1576 output20
*1577 output21
*1578 output22
*1579 output23
*1580 output24
*1581 output25
*1582 output26
*1583 output27
*1584 output28
*1585 output29
*1586 output30
*1587 output31
*1588 output32
*1589 output33
*1590 rebuffer1
*1591 rebuffer2
*1592 rebuffer3
*1593 rebuffer4

*PORTS
a[0] I
a[1] I
a[2] I
a[3] I
a[4] I
a[5] I
a[6] I
a[7] I
b[0] I
b[1] I
b[2] I
b[3] I
b[4] I
b[5] I
b[6] I
b[7] I
clk I
product[0] O
product[10] O
product[11] O
product[12] O
product[13] O
product[14] O
product[15] O
product[1] O
product[2] O
product[3] O
product[4] O
product[5] O
product[6] O
product[7] O
product[8] O
product[9] O
rst I

*D_NET *3 0.00144289
*CONN
*P a[0] I
*I *1556:A I *D sky130_fd_sc_hd__clkbuf_1
*CAP
1 a[0] 0.000642816
2 *1556:A 0.000642816
3 *1556:A *1463:A 0.00010096
4 *1556:A *1565:A 5.62995e-05
5 *1556:A *359:18 0
*RES
1 a[0] *1556:A 34.9071 
*END

*D_NET *4 0.00246467
*CONN
*P a[1] I
*I *1565:A I *D sky130_fd_sc_hd__clkbuf_1
*CAP
1 a[1] 0.00104831
2 *1565:A 0.00104831
3 *1565:A *1463:A 0.000214699
4 *1565:A *1496:CLK 4.01768e-05
5 *1565:A *1496:D 5.68809e-05
6 *1565:A *359:18 0
7 *1556:A *1565:A 5.62995e-05
*RES
1 a[1] *1565:A 30.7107 
*END

*D_NET *5 0.000994817
*CONN
*P a[2] I
*I *1566:A I *D sky130_fd_sc_hd__clkbuf_1
*CAP
1 a[2] 0.000483807
2 *1566:A 0.000483807
3 *1566:A *1473:A 4.46186e-06
4 *1566:A *1497:D 2.27416e-05
5 *1566:A *1558:A 0
*RES
1 a[2] *1566:A 23.0679 
*END

*D_NET *6 0.000950711
*CONN
*P a[3] I
*I *1567:A I *D sky130_fd_sc_hd__clkbuf_1
*CAP
1 a[3] 0.00047351
2 *1567:A 0.00047351
3 *1567:A *1498:D 3.69047e-06
4 *1567:A *1557:A 0
*RES
1 a[3] *1567:A 22.9071 
*END

*D_NET *7 0.000683813
*CONN
*P a[4] I
*I *1568:A I *D sky130_fd_sc_hd__clkbuf_1
*CAP
1 a[4] 0.000327522
2 *1568:A 0.000327522
3 *1568:A *1559:A 2.87684e-05
4 *1568:A *1571:A 0
5 *1568:A *375:67 0
*RES
1 a[4] *1568:A 21.391 
*END

*D_NET *8 0.000944482
*CONN
*P a[5] I
*I *1569:A I *D sky130_fd_sc_hd__clkbuf_1
*CAP
1 a[5] 0.000314765
2 *1569:A 0.000314765
3 *1569:A *1507:D 1.72894e-05
4 *1569:A *1560:A 0.000260497
5 *1569:A *1570:A 3.71658e-05
6 *1569:A *375:89 0
*RES
1 a[5] *1569:A 22.5125 
*END

*D_NET *9 0.00105093
*CONN
*P a[6] I
*I *1570:A I *D sky130_fd_sc_hd__clkbuf_1
*CAP
1 a[6] 0.000313172
2 *1570:A 0.000313172
3 *1570:A *1500:CLK 5.33005e-05
4 *1570:A *1501:D 0.000115369
5 *1570:A *1559:A 0
6 *1570:A *1571:A 2.25951e-05
7 *1570:A *375:76 0.000140263
8 *1570:A *375:89 5.58941e-05
9 *1570:A *433:60 0
10 *1569:A *1570:A 3.71658e-05
*RES
1 a[6] *1570:A 20.8556 
*END

*D_NET *10 0.000739382
*CONN
*P a[7] I
*I *1571:A I *D sky130_fd_sc_hd__clkbuf_1
*CAP
1 a[7] 0.000342424
2 *1571:A 0.000342424
3 *1571:A *1559:A 3.19385e-05
4 *1571:A *375:67 0
5 *1568:A *1571:A 0
6 *1570:A *1571:A 2.25951e-05
*RES
1 a[7] *1571:A 21.9981 
*END

*D_NET *11 0.000941071
*CONN
*P b[0] I
*I *1572:A I *D sky130_fd_sc_hd__clkbuf_1
*CAP
1 b[0] 0.000470535
2 *1572:A 0.000470535
3 *1572:A *359:18 0
*RES
1 b[0] *1572:A 22.6571 
*END

*D_NET *12 0.000946163
*CONN
*P b[1] I
*I *1557:A I *D sky130_fd_sc_hd__clkbuf_1
*CAP
1 b[1] 0.000463436
2 *1557:A 0.000463436
3 *1557:A *1504:D 1.92905e-05
4 *1557:A *1558:A 0
5 *1567:A *1557:A 0
*RES
1 b[1] *1557:A 22.6571 
*END

*D_NET *13 0.00084331
*CONN
*P b[2] I
*I *1558:A I *D sky130_fd_sc_hd__clkbuf_1
*CAP
1 b[2] 0.000421655
2 *1558:A 0.000421655
3 *1557:A *1558:A 0
4 *1566:A *1558:A 0
*RES
1 b[2] *1558:A 21.8357 
*END

*D_NET *14 0.000822097
*CONN
*P b[3] I
*I *1559:A I *D sky130_fd_sc_hd__clkbuf_1
*CAP
1 b[3] 0.000327346
2 *1559:A 0.000327346
3 *1559:A *1502:D 3.85049e-05
4 *1559:A *375:67 6.8194e-05
5 *1559:A *433:40 0
6 *1568:A *1559:A 2.87684e-05
7 *1570:A *1559:A 0
8 *1571:A *1559:A 3.19385e-05
*RES
1 b[3] *1559:A 19.7485 
*END

*D_NET *15 0.000809715
*CONN
*P b[4] I
*I *1560:A I *D sky130_fd_sc_hd__clkbuf_1
*CAP
1 b[4] 0.000263312
2 *1560:A 0.000263312
3 *1560:A *1561:A 2.25951e-05
4 *1560:A *375:89 0
5 *1569:A *1560:A 0.000260497
*RES
1 b[4] *1560:A 21.391 
*END

*D_NET *16 0.000792562
*CONN
*P b[5] I
*I *1561:A I *D sky130_fd_sc_hd__clkbuf_1
*CAP
1 b[5] 0.000384984
2 *1561:A 0.000384984
3 *1561:A *1509:CLK 0
4 *1561:A *1562:A 0
5 *1560:A *1561:A 2.25951e-05
*RES
1 b[5] *1561:A 22.6053 
*END

*D_NET *17 0.000685576
*CONN
*P b[6] I
*I *1562:A I *D sky130_fd_sc_hd__clkbuf_1
*CAP
1 b[6] 0.000314214
2 *1562:A 0.000314214
3 *1562:A *1520:A 5.71472e-05
4 *1561:A *1562:A 0
*RES
1 b[6] *1562:A 21.391 
*END

*D_NET *18 0.000802956
*CONN
*P b[7] I
*I *1563:A I *D sky130_fd_sc_hd__clkbuf_1
*CAP
1 b[7] 0.000293714
2 *1563:A 0.000293714
3 *1563:A *1478:A 0
4 *1563:A *1510:D 5.0371e-05
5 *1563:A *19:11 0.000165157
*RES
1 b[7] *1563:A 19.9443 
*END

*D_NET *19 0.0110193
*CONN
*P clk I
*I *1520:A I *D sky130_fd_sc_hd__clkbuf_16
*CAP
1 clk 0.00195001
2 *1520:A 0.00189782
3 *19:11 0.00384783