* NGSPICE file created from mult.ext - technology: sky130A

* Black-box entry subcircuit for sky130_fd_sc_hd__tapvpwrvgnd_1 abstract view
.subckt sky130_fd_sc_hd__tapvpwrvgnd_1 VGND VPWR
.ends

* Black-box entry subcircuit for sky130_ef_sc_hd__decap_12 abstract view
.subckt sky130_ef_sc_hd__decap_12 VPWR VGND VPB VNB
.ends

* Black-box entry subcircuit for sky130_fd_sc_hd__and2_1 abstract view
.subckt sky130_fd_sc_hd__and2_1 A B VGND VNB VPB VPWR X
.ends

* Black-box entry subcircuit for sky130_fd_sc_hd__fill_2 abstract view
.subckt sky130_fd_sc_hd__fill_2 VGND VNB VPB VPWR
.ends

* Black-box entry subcircuit for sky130_fd_sc_hd__and2b_1 abstract view
.subckt sky130_fd_sc_hd__and2b_1 A_N B VGND VNB VPB VPWR X
.ends

* Black-box entry subcircuit for sky130_fd_sc_hd__nor2_1 abstract view
.subckt sky130_fd_sc_hd__nor2_1 A B VGND VNB VPB VPWR Y
.ends

* Black-box entry subcircuit for sky130_fd_sc_hd__decap_8 abstract view
.subckt sky130_fd_sc_hd__decap_8 VGND VNB VPB VPWR
.ends

* Black-box entry subcircuit for sky130_fd_sc_hd__decap_3 abstract view
.subckt sky130_fd_sc_hd__decap_3 VGND VNB VPB VPWR
.ends

* Black-box entry subcircuit for sky130_fd_sc_hd__fill_1 abstract view
.subckt sky130_fd_sc_hd__fill_1 VGND VNB VPB VPWR
.ends

* Black-box entry subcircuit for sky130_fd_sc_hd__dfrtp_1 abstract view
.subckt sky130_fd_sc_hd__dfrtp_1 CLK D RESET_B VGND VNB VPB VPWR Q
.ends

* Black-box entry subcircuit for sky130_fd_sc_hd__nand3_1 abstract view
.subckt sky130_fd_sc_hd__nand3_1 A B C VGND VNB VPB VPWR Y
.ends

* Black-box entry subcircuit for sky130_fd_sc_hd__decap_4 abstract view
.subckt sky130_fd_sc_hd__decap_4 VGND VNB VPB VPWR
.ends

* Black-box entry subcircuit for sky130_fd_sc_hd__buf_1 abstract view
.subckt sky130_fd_sc_hd__buf_1 A VGND VNB VPB VPWR X
.ends

* Black-box entry subcircuit for sky130_fd_sc_hd__o21ba_1 abstract view
.subckt sky130_fd_sc_hd__o21ba_1 A1 A2 B1_N VGND VNB VPB VPWR X
.ends

* Black-box entry subcircuit for sky130_fd_sc_hd__inv_2 abstract view
.subckt sky130_fd_sc_hd__inv_2 A VGND VNB VPB VPWR Y
.ends

* Black-box entry subcircuit for sky130_fd_sc_hd__decap_6 abstract view
.subckt sky130_fd_sc_hd__decap_6 VGND VNB VPB VPWR
.ends

* Black-box entry subcircuit for sky130_fd_sc_hd__a22o_1 abstract view
.subckt sky130_fd_sc_hd__a22o_1 A1 A2 B1 B2 VGND VNB VPB VPWR X
.ends

* Black-box entry subcircuit for sky130_fd_sc_hd__nor3_1 abstract view
.subckt sky130_fd_sc_hd__nor3_1 A B C VGND VNB VPB VPWR Y
.ends

* Black-box entry subcircuit for sky130_fd_sc_hd__a211oi_1 abstract view
.subckt sky130_fd_sc_hd__a211oi_1 A1 A2 B1 C1 VGND VNB VPB VPWR Y
.ends

* Black-box entry subcircuit for sky130_fd_sc_hd__nand2b_1 abstract view
.subckt sky130_fd_sc_hd__nand2b_1 A_N B VGND VNB VPB VPWR Y
.ends

* Black-box entry subcircuit for sky130_fd_sc_hd__and4_1 abstract view
.subckt sky130_fd_sc_hd__and4_1 A B C D VGND VNB VPB VPWR X
.ends

* Black-box entry subcircuit for sky130_fd_sc_hd__o21a_1 abstract view
.subckt sky130_fd_sc_hd__o21a_1 A1 A2 B1 VGND VNB VPB VPWR X
.ends

* Black-box entry subcircuit for sky130_fd_sc_hd__a31o_1 abstract view
.subckt sky130_fd_sc_hd__a31o_1 A1 A2 A3 B1 VGND VNB VPB VPWR X
.ends

* Black-box entry subcircuit for sky130_fd_sc_hd__o211a_1 abstract view
.subckt sky130_fd_sc_hd__o211a_1 A1 A2 B1 C1 VGND VNB VPB VPWR X
.ends

* Black-box entry subcircuit for sky130_fd_sc_hd__or2_1 abstract view
.subckt sky130_fd_sc_hd__or2_1 A B VGND VNB VPB VPWR X
.ends

* Black-box entry subcircuit for sky130_fd_sc_hd__a21o_1 abstract view
.subckt sky130_fd_sc_hd__a21o_1 A1 A2 B1 VGND VNB VPB VPWR X
.ends

* Black-box entry subcircuit for sky130_fd_sc_hd__xnor2_1 abstract view
.subckt sky130_fd_sc_hd__xnor2_1 A B VGND VNB VPB VPWR Y
.ends

* Black-box entry subcircuit for sky130_fd_sc_hd__nand2_1 abstract view
.subckt sky130_fd_sc_hd__nand2_1 A B VGND VNB VPB VPWR Y
.ends

* Black-box entry subcircuit for sky130_fd_sc_hd__a21oi_1 abstract view
.subckt sky130_fd_sc_hd__a21oi_1 A1 A2 B1 VGND VNB VPB VPWR Y
.ends

* Black-box entry subcircuit for sky130_fd_sc_hd__a21bo_1 abstract view
.subckt sky130_fd_sc_hd__a21bo_1 A1 A2 B1_N VGND VNB VPB VPWR X
.ends

* Black-box entry subcircuit for sky130_fd_sc_hd__nand3_2 abstract view
.subckt sky130_fd_sc_hd__nand3_2 A B C VGND VNB VPB VPWR Y
.ends

* Black-box entry subcircuit for sky130_fd_sc_hd__and3_1 abstract view
.subckt sky130_fd_sc_hd__and3_1 A B C VGND VNB VPB VPWR X
.ends

* Black-box entry subcircuit for sky130_fd_sc_hd__clkinvlp_4 abstract view
.subckt sky130_fd_sc_hd__clkinvlp_4 A VGND VNB VPB VPWR Y
.ends

* Black-box entry subcircuit for sky130_fd_sc_hd__xor2_1 abstract view
.subckt sky130_fd_sc_hd__xor2_1 A B VGND VNB VPB VPWR X
.ends

* Black-box entry subcircuit for sky130_fd_sc_hd__clkinv_4 abstract view
.subckt sky130_fd_sc_hd__clkinv_4 A VGND VNB VPB VPWR Y
.ends

* Black-box entry subcircuit for sky130_fd_sc_hd__o2bb2a_1 abstract view
.subckt sky130_fd_sc_hd__o2bb2a_1 A1_N A2_N B1 B2 VGND VNB VPB VPWR X
.ends

* Black-box entry subcircuit for sky130_fd_sc_hd__a22oi_1 abstract view
.subckt sky130_fd_sc_hd__a22oi_1 A1 A2 B1 B2 VGND VNB VPB VPWR Y
.ends

* Black-box entry subcircuit for sky130_fd_sc_hd__buf_4 abstract view
.subckt sky130_fd_sc_hd__buf_4 A VGND VNB VPB VPWR X
.ends

* Black-box entry subcircuit for sky130_fd_sc_hd__o311a_1 abstract view
.subckt sky130_fd_sc_hd__o311a_1 A1 A2 A3 B1 C1 VGND VNB VPB VPWR X
.ends

* Black-box entry subcircuit for sky130_fd_sc_hd__o21bai_1 abstract view
.subckt sky130_fd_sc_hd__o21bai_1 A1 A2 B1_N VGND VNB VPB VPWR Y
.ends

* Black-box entry subcircuit for sky130_fd_sc_hd__buf_2 abstract view
.subckt sky130_fd_sc_hd__buf_2 A VGND VNB VPB VPWR X
.ends

* Black-box entry subcircuit for sky130_fd_sc_hd__clkbuf_16 abstract view
.subckt sky130_fd_sc_hd__clkbuf_16 A VGND VNB VPB VPWR X
.ends

* Black-box entry subcircuit for sky130_fd_sc_hd__a21boi_1 abstract view
.subckt sky130_fd_sc_hd__a21boi_1 A1 A2 B1_N VGND VNB VPB VPWR Y
.ends

* Black-box entry subcircuit for sky130_fd_sc_hd__clkbuf_2 abstract view
.subckt sky130_fd_sc_hd__clkbuf_2 A VGND VNB VPB VPWR X
.ends

* Black-box entry subcircuit for sky130_fd_sc_hd__o21ai_1 abstract view
.subckt sky130_fd_sc_hd__o21ai_1 A1 A2 B1 VGND VNB VPB VPWR Y
.ends

* Black-box entry subcircuit for sky130_fd_sc_hd__nor3b_1 abstract view
.subckt sky130_fd_sc_hd__nor3b_1 A B C_N VGND VNB VPB VPWR Y
.ends

* Black-box entry subcircuit for sky130_fd_sc_hd__nand4_1 abstract view
.subckt sky130_fd_sc_hd__nand4_1 A B C D VGND VNB VPB VPWR Y
.ends

* Black-box entry subcircuit for sky130_fd_sc_hd__clkbuf_1 abstract view
.subckt sky130_fd_sc_hd__clkbuf_1 A VGND VNB VPB VPWR X
.ends

* Black-box entry subcircuit for sky130_fd_sc_hd__and4b_1 abstract view
.subckt sky130_fd_sc_hd__and4b_1 A_N B C D VGND VNB VPB VPWR X
.ends

* Black-box entry subcircuit for sky130_fd_sc_hd__dfrtp_4 abstract view
.subckt sky130_fd_sc_hd__dfrtp_4 CLK D RESET_B VGND VNB VPB VPWR Q
.ends

* Black-box entry subcircuit for sky130_fd_sc_hd__dlymetal6s2s_1 abstract view
.subckt sky130_fd_sc_hd__dlymetal6s2s_1 A VGND VNB VPB VPWR X
.ends

* Black-box entry subcircuit for sky130_fd_sc_hd__or3_1 abstract view
.subckt sky130_fd_sc_hd__or3_1 A B C VGND VNB VPB VPWR X
.ends

* Black-box entry subcircuit for sky130_fd_sc_hd__a22oi_2 abstract view
.subckt sky130_fd_sc_hd__a22oi_2 A1 A2 B1 B2 VGND VNB VPB VPWR Y
.ends

* Black-box entry subcircuit for sky130_fd_sc_hd__mux2_1 abstract view
.subckt sky130_fd_sc_hd__mux2_1 A0 A1 S VGND VNB VPB VPWR X
.ends

* Black-box entry subcircuit for sky130_fd_sc_hd__or4_1 abstract view
.subckt sky130_fd_sc_hd__or4_1 A B C D VGND VNB VPB VPWR X
.ends

* Black-box entry subcircuit for sky130_fd_sc_hd__o22ai_1 abstract view
.subckt sky130_fd_sc_hd__o22ai_1 A1 A2 B1 B2 VGND VNB VPB VPWR Y
.ends

* Black-box entry subcircuit for sky130_fd_sc_hd__a31oi_2 abstract view
.subckt sky130_fd_sc_hd__a31oi_2 A1 A2 A3 B1 VGND VNB VPB VPWR Y
.ends

* Black-box entry subcircuit for sky130_fd_sc_hd__a41o_1 abstract view
.subckt sky130_fd_sc_hd__a41o_1 A1 A2 A3 A4 B1 VGND VNB VPB VPWR X
.ends

* Black-box entry subcircuit for sky130_fd_sc_hd__o32a_1 abstract view
.subckt sky130_fd_sc_hd__o32a_1 A1 A2 A3 B1 B2 VGND VNB VPB VPWR X
.ends

* Black-box entry subcircuit for sky130_fd_sc_hd__a211o_1 abstract view
.subckt sky130_fd_sc_hd__a211o_1 A1 A2 B1 C1 VGND VNB VPB VPWR X
.ends

* Black-box entry subcircuit for sky130_fd_sc_hd__a221o_1 abstract view
.subckt sky130_fd_sc_hd__a221o_1 A1 A2 B1 B2 C1 VGND VNB VPB VPWR X
.ends

* Black-box entry subcircuit for sky130_fd_sc_hd__o211ai_2 abstract view
.subckt sky130_fd_sc_hd__o211ai_2 A1 A2 B1 C1 VGND VNB VPB VPWR Y
.ends

* Black-box entry subcircuit for sky130_fd_sc_hd__nand3b_2 abstract view
.subckt sky130_fd_sc_hd__nand3b_2 A_N B C VGND VNB VPB VPWR Y
.ends

.subckt mult VGND VPWR a[0] a[1] a[2] a[3] a[4] a[5] a[6] a[7] b[0] b[1] b[2] b[3]
+ b[4] b[5] b[6] b[7] clk product[0] product[10] product[11] product[12] product[13]
+ product[14] product[15] product[1] product[2] product[3] product[4] product[5] product[6]
+ product[7] product[8] product[9] rst
XTAP_TAPCELL_ROW_24_139 VGND VPWR sky130_fd_sc_hd__tapvpwrvgnd_1
XFILLER_26_85 VPWR VGND VPWR VGND sky130_ef_sc_hd__decap_12
X_501_ _171_ _172_ VGND VGND VPWR VPWR _174_ sky130_fd_sc_hd__and2_1
XFILLER_13_166 VGND VGND VPWR VPWR sky130_fd_sc_hd__fill_2
XFILLER_13_100 VPWR VGND VPWR VGND sky130_ef_sc_hd__decap_12
X_432_ _105_ _106_ VGND VGND VPWR VPWR _107_ sky130_fd_sc_hd__and2b_1
X_363_ _038_ _039_ VGND VGND VPWR VPWR _040_ sky130_fd_sc_hd__nor2_1
X_415_ _089_ _090_ VGND VGND VPWR VPWR _091_ sky130_fd_sc_hd__nor2_1
XFILLER_12_76 VGND VGND VPWR VPWR sky130_fd_sc_hd__decap_8
XFILLER_10_169 VPWR VGND VPWR VGND sky130_ef_sc_hd__decap_12
X_346_ _299_ _311_ VGND VGND VPWR VPWR _313_ sky130_fd_sc_hd__and2_1
XFILLER_5_151 VGND VGND VPWR VPWR sky130_fd_sc_hd__decap_3
XFILLER_0_79 VGND VGND VPWR VPWR sky130_fd_sc_hd__fill_1
X_329_ _295_ _296_ VGND VGND VPWR VPWR _297_ sky130_fd_sc_hd__and2b_1
XFILLER_9_44 VGND VGND VPWR VPWR sky130_fd_sc_hd__decap_3
X_680_ clknet_2_2__leaf_clk net16 _022_ VGND VGND VPWR VPWR b_reg\[7\] sky130_fd_sc_hd__dfrtp_1
X_663_ clknet_2_2__leaf_clk product_reg\[14\] _005_ VGND VGND VPWR VPWR net23 sky130_fd_sc_hd__dfrtp_1
X_594_ _241_ _243_ _261_ VGND VGND VPWR VPWR _264_ sky130_fd_sc_hd__nand3_1
XFILLER_20_54 VPWR VGND VPWR VGND sky130_ef_sc_hd__decap_12
XFILLER_20_32 VGND VGND VPWR VPWR sky130_fd_sc_hd__decap_4
XPHY_EDGE_ROW_16_Left_48 VGND VGND VPWR VPWR sky130_fd_sc_hd__decap_3
XFILLER_6_23 VGND VGND VPWR VPWR sky130_fd_sc_hd__decap_4
XFILLER_6_45 VGND VGND VPWR VPWR sky130_fd_sc_hd__fill_2
XTAP_TAPCELL_ROW_27_148 VGND VPWR sky130_fd_sc_hd__tapvpwrvgnd_1
XFILLER_25_153 VPWR VGND VPWR VGND sky130_ef_sc_hd__decap_12
XFILLER_25_131 VGND VGND VPWR VPWR sky130_fd_sc_hd__fill_1
Xoutput20 net20 VGND VGND VPWR VPWR product[11] sky130_fd_sc_hd__buf_1
XFILLER_31_97 VPWR VGND VPWR VGND sky130_ef_sc_hd__decap_12
X_577_ _219_ _224_ _220_ VGND VGND VPWR VPWR _248_ sky130_fd_sc_hd__o21ba_1
Xoutput31 net31 VGND VGND VPWR VPWR product[7] sky130_fd_sc_hd__buf_1
X_646_ net58 VGND VGND VPWR VPWR _020_ sky130_fd_sc_hd__inv_2
XFILLER_22_112 VGND VGND VPWR VPWR sky130_fd_sc_hd__fill_2
XFILLER_26_97 VGND VGND VPWR VPWR sky130_fd_sc_hd__decap_4
XFILLER_26_42 VGND VGND VPWR VPWR sky130_fd_sc_hd__decap_6
XFILLER_26_20 VGND VGND VPWR VPWR sky130_fd_sc_hd__decap_8
X_500_ _171_ _172_ VGND VGND VPWR VPWR _173_ sky130_fd_sc_hd__nor2_1
XFILLER_13_134 VPWR VGND VPWR VGND sky130_ef_sc_hd__decap_12
X_431_ net40 net50 net38 net51 VGND VGND VPWR VPWR _106_ sky130_fd_sc_hd__a22o_1
XFILLER_3_35 VPWR VGND VPWR VGND sky130_ef_sc_hd__decap_12
XFILLER_3_57 VPWR VGND VPWR VGND sky130_ef_sc_hd__decap_12
X_362_ _307_ _309_ _037_ VGND VGND VPWR VPWR _039_ sky130_fd_sc_hd__nor3_1
X_629_ net59 VGND VGND VPWR VPWR _003_ sky130_fd_sc_hd__inv_2
XPHY_EDGE_ROW_19_Left_51 VGND VGND VPWR VPWR sky130_fd_sc_hd__decap_3
XFILLER_10_148 VPWR VGND VPWR VGND sky130_ef_sc_hd__decap_12
XFILLER_10_137 VGND VGND VPWR VPWR sky130_fd_sc_hd__decap_3
X_414_ _087_ _088_ _061_ _063_ VGND VGND VPWR VPWR _090_ sky130_fd_sc_hd__a211oi_1
X_345_ _299_ _311_ VGND VGND VPWR VPWR _312_ sky130_fd_sc_hd__nor2_1
XFILLER_5_185 VGND VGND VPWR VPWR sky130_fd_sc_hd__fill_1
XFILLER_23_32 VPWR VGND VPWR VGND sky130_ef_sc_hd__decap_12
XPHY_EDGE_ROW_21_Right_21 VGND VGND VPWR VPWR sky130_fd_sc_hd__decap_3
XPHY_EDGE_ROW_12_Right_12 VGND VGND VPWR VPWR sky130_fd_sc_hd__decap_3
XPHY_EDGE_ROW_4_Left_36 VGND VGND VPWR VPWR sky130_fd_sc_hd__decap_3
XPHY_EDGE_ROW_30_Right_30 VGND VGND VPWR VPWR sky130_fd_sc_hd__decap_3
XFILLER_23_65 VGND VGND VPWR VPWR sky130_fd_sc_hd__decap_3
X_328_ net55 net43 net53 b_reg\[0\] VGND VGND VPWR VPWR _296_ sky130_fd_sc_hd__a22o_1
X_662_ clknet_2_2__leaf_clk product_reg\[13\] _004_ VGND VGND VPWR VPWR net22 sky130_fd_sc_hd__dfrtp_1
XFILLER_20_66 VGND VGND VPWR VPWR sky130_fd_sc_hd__decap_4
X_593_ _262_ VGND VGND VPWR VPWR _263_ sky130_fd_sc_hd__inv_2
XTAP_TAPCELL_ROW_27_149 VGND VPWR sky130_fd_sc_hd__tapvpwrvgnd_1
XFILLER_25_165 VGND VGND VPWR VPWR sky130_fd_sc_hd__decap_3
XPHY_EDGE_ROW_6_Right_6 VGND VGND VPWR VPWR sky130_fd_sc_hd__decap_3
XFILLER_31_113 VGND VGND VPWR VPWR sky130_fd_sc_hd__fill_2
Xoutput21 net21 VGND VGND VPWR VPWR product[12] sky130_fd_sc_hd__buf_1
Xoutput32 net32 VGND VGND VPWR VPWR product[8] sky130_fd_sc_hd__buf_1
X_576_ _245_ _246_ VGND VGND VPWR VPWR _247_ sky130_fd_sc_hd__nand2b_1
X_645_ net58 VGND VGND VPWR VPWR _019_ sky130_fd_sc_hd__inv_2
XFILLER_26_76 VGND VGND VPWR VPWR sky130_fd_sc_hd__decap_8
XFILLER_26_10 VGND VGND VPWR VPWR sky130_fd_sc_hd__fill_1
X_430_ net51 net40 net50 net38 VGND VGND VPWR VPWR _105_ sky130_fd_sc_hd__and4_1
XFILLER_13_146 VPWR VGND VPWR VGND sky130_ef_sc_hd__decap_12
XFILLER_13_113 VPWR VGND VPWR VGND sky130_ef_sc_hd__decap_12
XFILLER_7_9 VGND VGND VPWR VPWR sky130_fd_sc_hd__decap_4
X_361_ _307_ _309_ _037_ VGND VGND VPWR VPWR _038_ sky130_fd_sc_hd__o21a_1
X_628_ net60 VGND VGND VPWR VPWR _002_ sky130_fd_sc_hd__inv_2
X_559_ net49 net37 _205_ _204_ VGND VGND VPWR VPWR _230_ sky130_fd_sc_hd__a31o_1
XFILLER_3_47 VGND VGND VPWR VPWR sky130_fd_sc_hd__fill_2
XFILLER_3_69 VGND VGND VPWR VPWR sky130_fd_sc_hd__decap_4
XFILLER_8_172 VGND VGND VPWR VPWR sky130_fd_sc_hd__decap_8
XFILLER_12_89 VGND VGND VPWR VPWR sky130_fd_sc_hd__fill_1
XFILLER_12_23 VGND VGND VPWR VPWR sky130_fd_sc_hd__decap_4
X_413_ _061_ _063_ _087_ _088_ VGND VGND VPWR VPWR _089_ sky130_fd_sc_hd__o211a_1
XTAP_TAPCELL_ROW_11_100 VGND VPWR sky130_fd_sc_hd__tapvpwrvgnd_1
X_344_ _309_ _310_ VGND VGND VPWR VPWR _311_ sky130_fd_sc_hd__or2_1
XPHY_EDGE_ROW_20_Left_52 VGND VGND VPWR VPWR sky130_fd_sc_hd__decap_3
XFILLER_23_55 VGND VGND VPWR VPWR sky130_fd_sc_hd__fill_1
XFILLER_0_48 VGND VGND VPWR VPWR sky130_fd_sc_hd__decap_4
XFILLER_0_15 VPWR VGND VPWR VGND sky130_ef_sc_hd__decap_12
XFILLER_3_3 VPWR VGND VPWR VGND sky130_ef_sc_hd__decap_12
X_327_ net44 net55 net43 net53 VGND VGND VPWR VPWR _295_ sky130_fd_sc_hd__and4_1
XFILLER_9_57 VGND VGND VPWR VPWR sky130_fd_sc_hd__decap_8
XFILLER_18_11 VGND VGND VPWR VPWR sky130_fd_sc_hd__fill_1
XFILLER_20_78 VGND VGND VPWR VPWR sky130_fd_sc_hd__decap_6
XFILLER_1_80 VGND VGND VPWR VPWR sky130_fd_sc_hd__decap_4
X_661_ clknet_2_2__leaf_clk product_reg\[12\] _003_ VGND VGND VPWR VPWR net21 sky130_fd_sc_hd__dfrtp_1
XFILLER_28_141 VPWR VGND VPWR VGND sky130_ef_sc_hd__decap_12
X_592_ _241_ _243_ _261_ VGND VGND VPWR VPWR _262_ sky130_fd_sc_hd__a21o_1
Xoutput22 net22 VGND VGND VPWR VPWR product[13] sky130_fd_sc_hd__buf_1
Xoutput33 net33 VGND VGND VPWR VPWR product[9] sky130_fd_sc_hd__buf_1
XFILLER_25_111 VGND VGND VPWR VPWR sky130_fd_sc_hd__fill_1
X_575_ _215_ _217_ _244_ VGND VGND VPWR VPWR _246_ sky130_fd_sc_hd__nand3_1
XFILLER_15_23 VGND VGND VPWR VPWR sky130_fd_sc_hd__decap_3
X_644_ net58 VGND VGND VPWR VPWR _018_ sky130_fd_sc_hd__inv_2
XFILLER_31_169 VPWR VGND VPWR VGND sky130_ef_sc_hd__decap_12
XFILLER_13_169 VPWR VGND VPWR VGND sky130_ef_sc_hd__decap_12
XFILLER_13_158 VGND VGND VPWR VPWR sky130_fd_sc_hd__decap_8
XFILLER_13_125 VGND VGND VPWR VPWR sky130_fd_sc_hd__decap_3
X_360_ _316_ _036_ VGND VGND VPWR VPWR _037_ sky130_fd_sc_hd__xnor2_1
X_627_ net60 VGND VGND VPWR VPWR _001_ sky130_fd_sc_hd__inv_2
X_489_ _161_ _162_ VGND VGND VPWR VPWR _163_ sky130_fd_sc_hd__and2_1
X_558_ _226_ _228_ VGND VGND VPWR VPWR _229_ sky130_fd_sc_hd__nand2_1
X_412_ _085_ _086_ _067_ VGND VGND VPWR VPWR _088_ sky130_fd_sc_hd__a21o_1
XTAP_TAPCELL_ROW_11_101 VGND VPWR sky130_fd_sc_hd__tapvpwrvgnd_1
XFILLER_5_143 VGND VGND VPWR VPWR sky130_fd_sc_hd__fill_1
X_343_ net57 net41 _308_ VGND VGND VPWR VPWR _310_ sky130_fd_sc_hd__a21oi_1
XFILLER_4_80 VGND VGND VPWR VPWR sky130_fd_sc_hd__decap_4
XFILLER_4_91 VGND VGND VPWR VPWR sky130_fd_sc_hd__fill_1
XFILLER_2_135 VGND VGND VPWR VPWR sky130_fd_sc_hd__decap_4
XFILLER_0_27 VGND VGND VPWR VPWR sky130_fd_sc_hd__fill_1
XFILLER_29_3 VPWR VGND VPWR VGND sky130_ef_sc_hd__decap_12
X_326_ net57 b_reg\[2\] VGND VGND VPWR VPWR _294_ sky130_fd_sc_hd__nand2_1
XFILLER_9_36 VGND VGND VPWR VPWR sky130_fd_sc_hd__decap_8
XFILLER_29_109 VGND VGND VPWR VPWR sky130_fd_sc_hd__decap_3
X_660_ clknet_2_3__leaf_clk product_reg\[11\] _002_ VGND VGND VPWR VPWR net20 sky130_fd_sc_hd__dfrtp_1
XFILLER_28_153 VPWR VGND VPWR VGND sky130_ef_sc_hd__decap_12
X_591_ _259_ _260_ VGND VGND VPWR VPWR _261_ sky130_fd_sc_hd__or2_1
XFILLER_6_37 VGND VGND VPWR VPWR sky130_fd_sc_hd__fill_1
XFILLER_19_131 VGND VGND VPWR VPWR sky130_fd_sc_hd__decap_8
XFILLER_13_6 VGND VGND VPWR VPWR sky130_fd_sc_hd__decap_6
Xoutput23 net23 VGND VGND VPWR VPWR product[14] sky130_fd_sc_hd__buf_1
XFILLER_15_79 VGND VGND VPWR VPWR sky130_fd_sc_hd__fill_1
XFILLER_15_57 VGND VGND VPWR VPWR sky130_fd_sc_hd__decap_4
X_574_ _215_ _217_ _244_ VGND VGND VPWR VPWR _245_ sky130_fd_sc_hd__a21oi_1
X_643_ net59 VGND VGND VPWR VPWR _017_ sky130_fd_sc_hd__inv_2
XFILLER_22_104 VGND VGND VPWR VPWR sky130_fd_sc_hd__decap_8
XFILLER_21_181 VGND VGND VPWR VPWR sky130_fd_sc_hd__fill_1
X_488_ _065_ _126_ _125_ VGND VGND VPWR VPWR _162_ sky130_fd_sc_hd__a21bo_1
X_557_ _227_ VGND VGND VPWR VPWR _228_ sky130_fd_sc_hd__inv_2
X_626_ _098_ _291_ VGND VGND VPWR VPWR product_reg\[5\] sky130_fd_sc_hd__nor2_1
XTAP_TAPCELL_ROW_14_110 VGND VPWR sky130_fd_sc_hd__tapvpwrvgnd_1
XFILLER_10_107 VGND VGND VPWR VPWR sky130_fd_sc_hd__fill_1
XFILLER_8_141 VGND VGND VPWR VPWR sky130_fd_sc_hd__fill_1
XFILLER_8_185 VGND VGND VPWR VPWR sky130_fd_sc_hd__decap_4
X_411_ _067_ _085_ _086_ VGND VGND VPWR VPWR _087_ sky130_fd_sc_hd__nand3_2
XTAP_TAPCELL_ROW_11_102 VGND VPWR sky130_fd_sc_hd__tapvpwrvgnd_1
X_342_ net57 net41 _308_ VGND VGND VPWR VPWR _309_ sky130_fd_sc_hd__and3_1
X_609_ _275_ _276_ VGND VGND VPWR VPWR _278_ sky130_fd_sc_hd__xnor2_1
XFILLER_23_57 VGND VGND VPWR VPWR sky130_fd_sc_hd__decap_8
XFILLER_2_147 VGND VGND VPWR VPWR sky130_fd_sc_hd__fill_1
XFILLER_2_158 VGND VGND VPWR VPWR sky130_fd_sc_hd__decap_3
X_325_ _292_ _293_ VGND VGND VPWR VPWR product_reg\[1\] sky130_fd_sc_hd__nor2_1
XFILLER_18_46 VPWR VGND VPWR VGND sky130_ef_sc_hd__decap_12
XFILLER_18_35 VGND VGND VPWR VPWR sky130_fd_sc_hd__decap_3
Xclkload0 clknet_2_1__leaf_clk VGND VGND VPWR VPWR clkload0/Y sky130_fd_sc_hd__clkinvlp_4
XFILLER_28_165 VGND VGND VPWR VPWR sky130_fd_sc_hd__decap_4
XFILLER_28_110 VPWR VGND VPWR VGND sky130_ef_sc_hd__decap_12
X_590_ _232_ _236_ _258_ VGND VGND VPWR VPWR _260_ sky130_fd_sc_hd__nor3_1
XFILLER_20_36 VGND VGND VPWR VPWR sky130_fd_sc_hd__fill_1
XFILLER_6_27 VGND VGND VPWR VPWR sky130_fd_sc_hd__fill_1
XFILLER_31_57 VGND VGND VPWR VPWR sky130_fd_sc_hd__fill_2
Xoutput24 net24 VGND VGND VPWR VPWR product[15] sky130_fd_sc_hd__buf_1
XPHY_EDGE_ROW_28_Right_28 VGND VGND VPWR VPWR sky130_fd_sc_hd__decap_3
X_573_ _225_ _242_ VGND VGND VPWR VPWR _244_ sky130_fd_sc_hd__xnor2_1
XPHY_EDGE_ROW_19_Right_19 VGND VGND VPWR VPWR sky130_fd_sc_hd__decap_3
X_642_ net59 VGND VGND VPWR VPWR _016_ sky130_fd_sc_hd__inv_2
XFILLER_22_149 VGND VGND VPWR VPWR sky130_fd_sc_hd__decap_3
XFILLER_22_127 VPWR VGND VPWR VGND sky130_ef_sc_hd__decap_12
XFILLER_26_57 VPWR VGND VPWR VGND sky130_ef_sc_hd__decap_12
X_625_ _093_ _097_ _041_ VGND VGND VPWR VPWR _291_ sky130_fd_sc_hd__a21oi_1
X_487_ _134_ _160_ VGND VGND VPWR VPWR _161_ sky130_fd_sc_hd__xor2_1
X_556_ net38 net48 net37 net45 VGND VGND VPWR VPWR _227_ sky130_fd_sc_hd__and4_1
XTAP_TAPCELL_ROW_14_111 VGND VPWR sky130_fd_sc_hd__tapvpwrvgnd_1
XFILLER_12_171 VPWR VGND VPWR VGND sky130_ef_sc_hd__decap_12
XFILLER_8_153 VGND VGND VPWR VPWR sky130_fd_sc_hd__fill_1
X_410_ _082_ _083_ _084_ VGND VGND VPWR VPWR _086_ sky130_fd_sc_hd__a21o_1
X_341_ _305_ _306_ VGND VGND VPWR VPWR _308_ sky130_fd_sc_hd__xor2_1
X_608_ _276_ _275_ VGND VGND VPWR VPWR _277_ sky130_fd_sc_hd__and2b_1
XFILLER_5_167 VGND VGND VPWR VPWR sky130_fd_sc_hd__fill_1
X_539_ _208_ _209_ VGND VGND VPWR VPWR _211_ sky130_fd_sc_hd__and2b_1
XPHY_EDGE_ROW_24_Left_56 VGND VGND VPWR VPWR sky130_fd_sc_hd__decap_3
XFILLER_2_115 VGND VGND VPWR VPWR sky130_fd_sc_hd__fill_1
XFILLER_0_29 VPWR VGND VPWR VGND sky130_ef_sc_hd__decap_12
X_324_ net55 net43 product_reg\[0\] VGND VGND VPWR VPWR _293_ sky130_fd_sc_hd__and3_1
XFILLER_1_181 VGND VGND VPWR VPWR sky130_fd_sc_hd__fill_1
Xclkload1 clknet_2_2__leaf_clk VGND VGND VPWR VPWR clkload1/Y sky130_fd_sc_hd__clkinv_4
XFILLER_1_3 VPWR VGND VPWR VGND sky130_ef_sc_hd__decap_12
XFILLER_29_57 VPWR VGND VPWR VGND sky130_ef_sc_hd__decap_12
XFILLER_29_35 VGND VGND VPWR VPWR sky130_fd_sc_hd__fill_1
XFILLER_28_122 VPWR VGND VPWR VGND sky130_ef_sc_hd__decap_12
XPHY_EDGE_ROW_11_Left_43 VGND VGND VPWR VPWR sky130_fd_sc_hd__decap_3
XFILLER_31_139 VGND VGND VPWR VPWR sky130_fd_sc_hd__fill_1
XFILLER_31_69 VPWR VGND VPWR VGND sky130_ef_sc_hd__decap_12
X_572_ _225_ _242_ VGND VGND VPWR VPWR _243_ sky130_fd_sc_hd__nand2_1
Xoutput25 net25 VGND VGND VPWR VPWR product[1] sky130_fd_sc_hd__buf_1
X_641_ net59 VGND VGND VPWR VPWR _015_ sky130_fd_sc_hd__inv_2
XFILLER_22_139 VGND VGND VPWR VPWR sky130_fd_sc_hd__fill_1
XTAP_TAPCELL_ROW_17_120 VGND VPWR sky130_fd_sc_hd__tapvpwrvgnd_1
XFILLER_26_69 VGND VGND VPWR VPWR sky130_fd_sc_hd__fill_2
XFILLER_26_14 VGND VGND VPWR VPWR sky130_fd_sc_hd__fill_1
X_624_ _289_ _290_ VGND VGND VPWR VPWR product_reg\[15\] sky130_fd_sc_hd__or2_1
X_486_ _157_ _158_ VGND VGND VPWR VPWR _160_ sky130_fd_sc_hd__xnor2_1
X_555_ net48 net37 net45 net38 VGND VGND VPWR VPWR _226_ sky130_fd_sc_hd__a22o_1
XFILLER_12_183 VGND VGND VPWR VPWR sky130_fd_sc_hd__decap_6
XFILLER_12_27 VGND VGND VPWR VPWR sky130_fd_sc_hd__fill_1
X_607_ net35 _227_ _249_ _252_ VGND VGND VPWR VPWR _276_ sky130_fd_sc_hd__o2bb2a_1
X_340_ _305_ _306_ VGND VGND VPWR VPWR _307_ sky130_fd_sc_hd__and2_1
X_538_ _209_ _208_ VGND VGND VPWR VPWR _210_ sky130_fd_sc_hd__nand2b_1
X_469_ net50 net38 net49 net40 VGND VGND VPWR VPWR _143_ sky130_fd_sc_hd__a22o_1
X_323_ b_reg\[0\] net55 net43 net57 VGND VGND VPWR VPWR _292_ sky130_fd_sc_hd__a22oi_1
Xfanout60 net61 VGND VGND VPWR VPWR net60 sky130_fd_sc_hd__buf_4
XFILLER_9_28 VGND VGND VPWR VPWR sky130_fd_sc_hd__decap_4
Xclkload2 clknet_2_3__leaf_clk VGND VGND VPWR VPWR clkload2/Y sky130_fd_sc_hd__clkinvlp_4
XFILLER_24_91 VGND VGND VPWR VPWR sky130_fd_sc_hd__fill_1
XFILLER_29_69 VGND VGND VPWR VPWR sky130_fd_sc_hd__decap_4
XFILLER_28_134 VGND VGND VPWR VPWR sky130_fd_sc_hd__decap_6
XFILLER_20_27 VGND VGND VPWR VPWR sky130_fd_sc_hd__fill_1
XFILLER_19_167 VGND VGND VPWR VPWR sky130_fd_sc_hd__fill_1
XFILLER_19_80 VGND VGND VPWR VPWR sky130_fd_sc_hd__decap_8
XFILLER_6_29 VGND VGND VPWR VPWR sky130_fd_sc_hd__decap_3
XFILLER_10_82 VGND VGND VPWR VPWR sky130_fd_sc_hd__fill_2
XFILLER_15_38 VPWR VGND VPWR VGND sky130_ef_sc_hd__decap_12
XFILLER_31_118 VPWR VGND VPWR VGND sky130_ef_sc_hd__decap_12
XFILLER_31_15 VPWR VGND VPWR VGND sky130_ef_sc_hd__decap_12
XFILLER_24_170 VPWR VGND VPWR VGND sky130_ef_sc_hd__decap_12
X_571_ _239_ _240_ VGND VGND VPWR VPWR _242_ sky130_fd_sc_hd__xor2_1
XFILLER_16_137 VGND VGND VPWR VPWR sky130_fd_sc_hd__decap_3
XPHY_EDGE_ROW_1_Right_1 VGND VGND VPWR VPWR sky130_fd_sc_hd__decap_3
Xoutput26 net26 VGND VGND VPWR VPWR product[2] sky130_fd_sc_hd__buf_1
X_640_ net58 VGND VGND VPWR VPWR _014_ sky130_fd_sc_hd__inv_2
XFILLER_21_151 VGND VGND VPWR VPWR sky130_fd_sc_hd__fill_1
X_485_ _158_ _157_ VGND VGND VPWR VPWR _159_ sky130_fd_sc_hd__and2b_1
X_623_ _250_ _273_ _277_ net34 net46 VGND VGND VPWR VPWR _290_ sky130_fd_sc_hd__o311a_1
XFILLER_16_70 VPWR VGND VPWR VGND sky130_ef_sc_hd__decap_12
X_554_ net52 net34 _201_ _200_ VGND VGND VPWR VPWR _225_ sky130_fd_sc_hd__a31o_1
XTAP_TAPCELL_ROW_20_127 VGND VPWR sky130_fd_sc_hd__tapvpwrvgnd_1
XFILLER_5_158 VGND VGND VPWR VPWR sky130_fd_sc_hd__decap_6
X_606_ _273_ _274_ VGND VGND VPWR VPWR _275_ sky130_fd_sc_hd__nor2_1
X_468_ net40 net50 net38 a_reg\[5\] VGND VGND VPWR VPWR _142_ sky130_fd_sc_hd__and4_1
X_537_ _074_ _181_ _148_ VGND VGND VPWR VPWR _209_ sky130_fd_sc_hd__o21bai_1
X_399_ net44 net42 net47 net49 VGND VGND VPWR VPWR _075_ sky130_fd_sc_hd__and4_1
XFILLER_23_49 VGND VGND VPWR VPWR sky130_fd_sc_hd__decap_6
XFILLER_2_139 VGND VGND VPWR VPWR sky130_fd_sc_hd__fill_1
X_322_ b_reg\[0\] net57 VGND VGND VPWR VPWR product_reg\[0\] sky130_fd_sc_hd__and2_1
Xfanout61 net17 VGND VGND VPWR VPWR net61 sky130_fd_sc_hd__buf_2
Xfanout50 a_reg\[4\] VGND VGND VPWR VPWR net50 sky130_fd_sc_hd__buf_2
XTAP_TAPCELL_ROW_9_94 VGND VPWR sky130_fd_sc_hd__tapvpwrvgnd_1
XFILLER_29_15 VPWR VGND VPWR VGND sky130_ef_sc_hd__decap_12
XFILLER_28_102 VGND VGND VPWR VPWR sky130_fd_sc_hd__fill_1
XFILLER_19_113 VGND VGND VPWR VPWR sky130_fd_sc_hd__decap_3
XFILLER_25_105 VGND VGND VPWR VPWR sky130_fd_sc_hd__fill_2
XFILLER_31_27 VGND VGND VPWR VPWR sky130_fd_sc_hd__fill_1
XFILLER_25_138 VGND VGND VPWR VPWR sky130_fd_sc_hd__decap_8
X_570_ _239_ _240_ VGND VGND VPWR VPWR _241_ sky130_fd_sc_hd__nand2_1
XFILLER_16_149 VGND VGND VPWR VPWR sky130_fd_sc_hd__decap_3
Xoutput27 net27 VGND VGND VPWR VPWR product[3] sky130_fd_sc_hd__buf_1
Xclkbuf_0_clk clk VGND VGND VPWR VPWR clknet_0_clk sky130_fd_sc_hd__clkbuf_16
XFILLER_30_141 VPWR VGND VPWR VGND sky130_ef_sc_hd__decap_12
XPHY_EDGE_ROW_24_Right_24 VGND VGND VPWR VPWR sky130_fd_sc_hd__decap_3
XTAP_TAPCELL_ROW_23_136 VGND VPWR sky130_fd_sc_hd__tapvpwrvgnd_1
XFILLER_21_185 VGND VGND VPWR VPWR sky130_fd_sc_hd__fill_1
XPHY_EDGE_ROW_15_Right_15 VGND VGND VPWR VPWR sky130_fd_sc_hd__decap_3
X_553_ _221_ _224_ VGND VGND VPWR VPWR product_reg\[10\] sky130_fd_sc_hd__xnor2_1
X_622_ _286_ _288_ VGND VGND VPWR VPWR product_reg\[14\] sky130_fd_sc_hd__xnor2_1
X_484_ _104_ _122_ _121_ VGND VGND VPWR VPWR _158_ sky130_fd_sc_hd__a21boi_1
XFILLER_16_82 VGND VGND VPWR VPWR sky130_fd_sc_hd__fill_2
XFILLER_12_152 VGND VGND VPWR VPWR sky130_fd_sc_hd__fill_1
XFILLER_8_101 VGND VGND VPWR VPWR sky130_fd_sc_hd__fill_1
XFILLER_8_167 VGND VGND VPWR VPWR sky130_fd_sc_hd__fill_2
XTAP_TAPCELL_ROW_20_128 VGND VPWR sky130_fd_sc_hd__tapvpwrvgnd_1
XFILLER_5_126 VGND VGND VPWR VPWR sky130_fd_sc_hd__fill_1
XFILLER_5_137 VGND VGND VPWR VPWR sky130_fd_sc_hd__decap_6
X_605_ _271_ _272_ _254_ VGND VGND VPWR VPWR _274_ sky130_fd_sc_hd__a21oi_1
X_467_ _139_ _140_ VGND VGND VPWR VPWR _141_ sky130_fd_sc_hd__or2_1
XFILLER_4_85 VGND VGND VPWR VPWR sky130_fd_sc_hd__decap_6
X_398_ net42 net47 VGND VGND VPWR VPWR _074_ sky130_fd_sc_hd__and2_1
X_536_ _206_ _207_ VGND VGND VPWR VPWR _208_ sky130_fd_sc_hd__xor2_1
X_321_ net60 VGND VGND VPWR VPWR _000_ sky130_fd_sc_hd__inv_2
XTAP_TAPCELL_ROW_0_64 VGND VPWR sky130_fd_sc_hd__tapvpwrvgnd_1
Xfanout51 a_reg\[3\] VGND VGND VPWR VPWR net51 sky130_fd_sc_hd__buf_2
Xfanout40 b_reg\[3\] VGND VGND VPWR VPWR net40 sky130_fd_sc_hd__clkbuf_2
XTAP_TAPCELL_ROW_9_95 VGND VPWR sky130_fd_sc_hd__tapvpwrvgnd_1
X_519_ _191_ VGND VGND VPWR VPWR _192_ sky130_fd_sc_hd__inv_2
XFILLER_29_27 VGND VGND VPWR VPWR sky130_fd_sc_hd__decap_8
XFILLER_19_147 VPWR VGND VPWR VGND sky130_ef_sc_hd__decap_12
XTAP_TAPCELL_ROW_6_85 VGND VPWR sky130_fd_sc_hd__tapvpwrvgnd_1
XFILLER_10_95 VPWR VGND VPWR VGND sky130_ef_sc_hd__decap_12
Xoutput28 net28 VGND VGND VPWR VPWR product[4] sky130_fd_sc_hd__buf_1
XFILLER_31_109 VGND VGND VPWR VPWR sky130_fd_sc_hd__decap_3
XTAP_TAPCELL_ROW_26_145 VGND VPWR sky130_fd_sc_hd__tapvpwrvgnd_1
XFILLER_30_153 VPWR VGND VPWR VGND sky130_ef_sc_hd__decap_12
XPHY_EDGE_ROW_15_Left_47 VGND VGND VPWR VPWR sky130_fd_sc_hd__decap_3
X_621_ _270_ _287_ _286_ _280_ VGND VGND VPWR VPWR _289_ sky130_fd_sc_hd__o211a_1
X_552_ _166_ _222_ _223_ VGND VGND VPWR VPWR _224_ sky130_fd_sc_hd__a21oi_1
XTAP_TAPCELL_ROW_23_137 VGND VPWR sky130_fd_sc_hd__tapvpwrvgnd_1
X_483_ _141_ _156_ VGND VGND VPWR VPWR _157_ sky130_fd_sc_hd__xor2_1
XFILLER_16_50 VPWR VGND VPWR VGND sky130_ef_sc_hd__decap_12
XTAP_TAPCELL_ROW_20_129 VGND VPWR sky130_fd_sc_hd__tapvpwrvgnd_1
XFILLER_27_93 VGND VGND VPWR VPWR sky130_fd_sc_hd__fill_1
XFILLER_27_82 VGND VGND VPWR VPWR sky130_fd_sc_hd__decap_6
X_604_ _254_ _271_ _272_ VGND VGND VPWR VPWR _273_ sky130_fd_sc_hd__and3_1
X_466_ _137_ _138_ VGND VGND VPWR VPWR _140_ sky130_fd_sc_hd__and2_1
X_535_ net49 net37 VGND VGND VPWR VPWR _207_ sky130_fd_sc_hd__nand2_1
X_397_ b_reg\[2\] net50 VGND VGND VPWR VPWR _073_ sky130_fd_sc_hd__nand2_1
Xclkbuf_2_0__f_clk clknet_0_clk VGND VGND VPWR VPWR clknet_2_0__leaf_clk sky130_fd_sc_hd__clkbuf_16
XPHY_EDGE_ROW_18_Left_50 VGND VGND VPWR VPWR sky130_fd_sc_hd__decap_3
Xfanout52 a_reg\[3\] VGND VGND VPWR VPWR net52 sky130_fd_sc_hd__buf_1
XFILLER_1_185 VGND VGND VPWR VPWR sky130_fd_sc_hd__fill_1
XTAP_TAPCELL_ROW_0_65 VGND VPWR sky130_fd_sc_hd__tapvpwrvgnd_1
Xfanout41 b_reg\[3\] VGND VGND VPWR VPWR net41 sky130_fd_sc_hd__clkbuf_2
X_518_ _167_ _190_ VGND VGND VPWR VPWR _191_ sky130_fd_sc_hd__or2_1
X_449_ _121_ _122_ _104_ VGND VGND VPWR VPWR _124_ sky130_fd_sc_hd__a21oi_1
XFILLER_18_29 VGND VGND VPWR VPWR sky130_fd_sc_hd__decap_3
XTAP_TAPCELL_ROW_9_96 VGND VPWR sky130_fd_sc_hd__tapvpwrvgnd_1
XPHY_EDGE_ROW_3_Left_35 VGND VGND VPWR VPWR sky130_fd_sc_hd__decap_3
XFILLER_1_87 VGND VGND VPWR VPWR sky130_fd_sc_hd__fill_2
XTAP_TAPCELL_ROW_29_154 VGND VPWR sky130_fd_sc_hd__tapvpwrvgnd_1
XFILLER_27_181 VGND VGND VPWR VPWR sky130_fd_sc_hd__fill_1