*SPEF "ieee 1481-1999"
*DESIGN "mult"
*DATE "19:31:46 Wednesday November 05, 2025"
*VENDOR "The OpenROAD Project"
*PROGRAM "OpenROAD"
*VERSION "edf00dff99f6c40d67a30c0e22a8191c5d2ed9d6"
*DESIGN_FLOW "NAME_SCOPE LOCAL" "PIN_CAP NONE"
*DIVIDER /
*DELIMITER :
*BUS_DELIMITER []
*T_UNIT 1 NS
*C_UNIT 1 PF
*R_UNIT 1 OHM
*L_UNIT 1 HENRY

*NAME_MAP
*3 a[0]
*4 a[1]
*5 a[2]
*6 a[3]
*7 a[4]
*8 a[5]
*9 a[6]
*10 a[7]
*11 b[0]
*12 b[1]
*13 b[2]
*14 b[3]
*15 b[4]
*16 b[5]
*17 b[6]
*18 b[7]
*19 clk
*20 product[0]
*21 product[10]
*22 product[11]
*23 product[12]
*24 product[13]
*25 product[14]
*26 product[15]
*27 product[1]
*28 product[2]
*29 product[3]
*30 product[4]
*31 product[5]
*32 product[6]
*33 product[7]
*34 product[8]
*35 product[9]
*36 rst
*37 _000_
*38 _001_
*39 _002_
*40 _003_
*41 _004_
*42 _005_
*43 _006_
*44 _007_
*45 _008_
*46 _009_
*47 _010_
*48 _011_
*49 _012_
*50 _013_
*51 _014_
*52 _015_
*53 _016_
*54 _017_
*55 _018_
*56 _019_
*57 _020_
*58 _021_
*59 _022_
*60 _023_
*61 _024_
*62 _025_
*63 _026_
*64 _027_
*65 _028_
*66 _029_
*67 _030_
*68 _031_
*69 _032_
*70 _033_
*71 _034_
*72 _035_
*73 _036_
*74 _037_
*75 _038_
*76 _039_
*77 _040_
*78 _041_
*79 _042_
*80 _043_
*81 _044_
*82 _045_
*83 _046_
*84 _047_
*85 _048_
*86 _049_
*87 _050_
*88 _051_
*89 _052_
*90 _053_
*91 _054_
*92 _055_
*93 _056_
*94 _057_
*95 _058_
*96 _059_
*97 _060_
*98 _061_
*99 _062_
*100 _063_
*101 _064_
*102 _065_
*103 _066_
*104 _067_
*105 _068_
*106 _069_
*107 _070_
*108 _071_
*109 _072_
*110 _073_
*111 _074_
*112 _075_
*113 _076_
*114 _077_
*115 _078_
*116 _079_
*117 _080_
*118 _081_
*119 _082_
*120 _083_
*121 _084_
*122 _085_
*123 _086_
*124 _087_
*125 _088_
*126 _089_
*127 _090_
*128 _091_
*129 _092_
*130 _093_
*131 _094_
*132 _095_
*133 _096_
*134 _097_
*135 _098_
*136 _099_
*137 _100_
*138 _101_
*139 _102_
*140 _103_
*141 _104_
*142 _105_
*143 _106_
*144 _107_
*145 _108_
*146 _109_
*147 _110_
*148 _111_
*149 _112_
*150 _113_
*151 _114_
*152 _115_
*153 _116_
*154 _117_
*155 _118_
*156 _119_
*157 _120_
*158 _121_
*159 _122_
*160 _123_
*161 _124_
*162 _125_
*163 _126_
*164 _127_
*165 _128_
*166 _129_
*167 _130_
*168 _131_
*169 _132_
*170 _133_
*171 _134_
*172 _135_
*173 _136_
*174 _137_
*175 _138_
*176 _139_
*177 _140_
*178 _141_
*179 _142_
*180 _143_
*181 _144_
*182 _145_
*183 _146_
*184 _147_
*185 _148_
*186 _149_
*187 _150_
*188 _151_
*189 _152_
*190 _153_
*191 _154_
*192 _155_
*193 _156_
*194 _157_
*195 _158_
*196 _159_
*197 _160_
*198 _161_
*199 _162_
*200 _163_
*201 _164_
*202 _165_
*203 _166_
*204 _167_
*205 _168_
*206 _169_
*207 _170_
*208 _171_
*209 _172_
*210 _173_
*211 _174_
*212 _175_
*213 _176_
*214 _177_
*215 _178_
*216 _179_
*217 _180_
*218 _181_
*219 _182_
*220 _183_
*221 _184_
*222 _185_
*223 _186_
*224 _187_
*225 _188_
*226 _189_
*227 _190_
*228 _191_
*229 _192_
*230 _193_
*231 _194_
*232 _195_
*233 _196_
*234 _197_
*235 _198_
*236 _199_
*237 _200_
*238 _201_
*239 _202_
*240 _203_
*241 _204_
*242 _205_
*243 _206_
*244 _207_
*245 _208_
*246 _209_
*247 _210_
*248 _211_
*249 _212_
*250 _213_
*251 _214_
*252 _215_
*253 _216_
*254 _217_
*255 _218_
*256 _219_
*257 _220_
*258 _221_
*259 _222_
*260 _223_
*261 _224_
*262 _225_
*263 _226_
*264 _227_
*265 _228_
*266 _229_
*267 _230_
*268 _231_
*269 _232_
*270 _233_
*271 _234_
*272 _235_
*273 _236_
*274 _237_
*275 _238_
*276 _239_
*277 _240_
*278 _241_
*279 _242_
*280 _243_
*281 _244_
*282 _245_
*283 _246_
*284 _247_
*285 _248_
*286 _249_
*287 _250_
*288 _251_
*289 _252_
*290 _253_
*291 _254_
*292 _255_
*293 _256_
*294 _257_
*295 _258_
*296 _259_
*297 _260_
*298 _261_
*299 _262_
*300 _263_
*301 _264_
*302 _265_
*303 _266_
*304 _267_
*305 _268_
*306 _269_
*307 _270_
*308 _271_
*309 _272_
*310 _273_
*311 _274_
*312 _275_
*313 _276_
*314 _277_
*315 _278_
*316 _279_
*317 _280_
*318 _281_
*319 _282_
*320 _283_
*321 _284_
*322 _285_
*323 _286_
*324 _287_
*325 _288_
*326 _289_
*327 _290_
*328 _291_
*329 _292_
*330 _293_
*331 _294_
*332 _295_
*333 _296_
*334 _297_
*335 _298_
*336 _299_
*337 _300_
*338 _301_
*339 _302_
*340 _303_
*341 _304_
*342 _305_
*343 _306_
*344 _307_
*345 _308_
*346 _309_
*347 _310_
*348 _311_
*349 _312_
*350 _313_
*351 _314_
*352 _315_
*353 _316_
*354 _317_
*355 _318_
*356 _319_
*357 _320_
*358 a_reg\[0\]
*359 a_reg\[1\]
*360 a_reg\[2\]
*361 a_reg\[3\]
*362 a_reg\[4\]
*363 a_reg\[5\]
*364 a_reg\[6\]
*365 a_reg\[7\]
*366 b_reg\[0\]
*367 b_reg\[1\]
*368 b_reg\[2\]
*369 b_reg\[3\]
*370 b_reg\[4\]
*371 b_reg\[5\]
*372 b_reg\[6\]
*373 b_reg\[7\]
*374 clknet_0_clk
*375 clknet_2_0__leaf_clk
*376 clknet_2_1__leaf_clk
*377 clknet_2_2__leaf_clk
*378 clknet_2_3__leaf_clk
*379 net1
*380 net10
*381 net11
*382 net12
*383 net13
*384 net14
*385 net15
*386 net16
*387 net17
*388 net18
*389 net19
*390 net2
*391 net20
*392 net21
*393 net22
*394 net23
*395 net24
*396 net25
*397 net26
*398 net27
*399 net28
*400 net29
*401 net3
*402 net30
*403 net31
*404 net32
*405 net33
*406 net34
*407 net35
*408 net36
*409 net37
*410 net38
*411 net39
*412 net4
*413 net40
*414 net41
*415 net42
*416 net43
*417 net44
*418 net45
*419 net46
*420 net47
*421 net48
*422 net49
*423 net5
*424 net50
*425 net51
*426 net52
*427 net53
*428 net54
*429 net55
*430 net56
*431 net57
*432 net58
*433 net59
*434 net6
*435 net60
*436 net61
*437 net7
*438 net8
*439 net9
*440 product_reg\[0\]
*441 product_reg\[10\]
*442 product_reg\[11\]
*443 product_reg\[12\]
*444 product_reg\[13\]
*445 product_reg\[14\]
*446 product_reg\[15\]
*447 product_reg\[1\]
*448 product_reg\[2\]
*449 product_reg\[3\]
*450 product_reg\[4\]
*451 product_reg\[5\]
*452 product_reg\[6\]
*453 product_reg\[7\]
*454 product_reg\[8\]
*455 product_reg\[9\]
*456 FILLER_0_116
*457 FILLER_0_124
*458 FILLER_0_128
*459 FILLER_0_139
*460 FILLER_0_141
*461 FILLER_0_148
*462 FILLER_0_15
*463 FILLER_0_153
*464 FILLER_0_165
*465 FILLER_0_169
*466 FILLER_0_181
*467 FILLER_0_27
*468 FILLER_0_29
*469 FILLER_0_3
*470 FILLER_0_41
*471 FILLER_0_48
*472 FILLER_0_55
*473 FILLER_0_63
*474 FILLER_0_71
*475 FILLER_0_79
*476 FILLER_0_83
*477 FILLER_0_85
*478 FILLER_10_107
*479 FILLER_10_112
*480 FILLER_10_124
*481 FILLER_10_132
*482 FILLER_10_137
*483 FILLER_10_148
*484 FILLER_10_15
*485 FILLER_10_160
*486 FILLER_10_169
*487 FILLER_10_181
*488 FILLER_10_185
*489 FILLER_10_23
*490 FILLER_10_29
*491 FILLER_10_43
*492 FILLER_10_58
*493 FILLER_10_82
*494 FILLER_10_95
*495 FILLER_11_107
*496 FILLER_11_113
*497 FILLER_11_123
*498 FILLER_11_129
*499 FILLER_11_160
*500 FILLER_11_169
*501 FILLER_11_181
*502 FILLER_11_23
*503 FILLER_11_45
*504 FILLER_11_52
*505 FILLER_11_74
*506 FILLER_11_86
*507 FILLER_11_94
*508 FILLER_11_99
*509 FILLER_12_104
*510 FILLER_12_126
*511 FILLER_12_137
*512 FILLER_12_146
*513 FILLER_12_152
*514 FILLER_12_171
*515 FILLER_12_183
*516 FILLER_12_23
*517 FILLER_12_27
*518 FILLER_12_40
*519 FILLER_12_52
*520 FILLER_12_64
*521 FILLER_12_76
*522 FILLER_12_85
*523 FILLER_12_89
*524 FILLER_13_100
*525 FILLER_13_113
*526 FILLER_13_125
*527 FILLER_13_134
*528 FILLER_13_146
*529 FILLER_13_15
*530 FILLER_13_158
*531 FILLER_13_166
*532 FILLER_13_169
*533 FILLER_13_181
*534 FILLER_13_27
*535 FILLER_13_35
*536 FILLER_13_52
*537 FILLER_13_57
*538 FILLER_13_6
*539 FILLER_13_65
*540 FILLER_13_79
*541 FILLER_14_10
*542 FILLER_14_107
*543 FILLER_14_121
*544 FILLER_14_133
*545 FILLER_14_139
*546 FILLER_14_14
*547 FILLER_14_141
*548 FILLER_14_156
*549 FILLER_14_164
*550 FILLER_14_173
*551 FILLER_14_181
*552 FILLER_14_185
*553 FILLER_14_26
*554 FILLER_14_36
*555 FILLER_14_44
*556 FILLER_14_6
*557 FILLER_14_61
*558 FILLER_14_81
*559 FILLER_14_85
*560 FILLER_14_99
*561 FILLER_15_107
*562 FILLER_15_111
*563 FILLER_15_143
*564 FILLER_15_149
*565 FILLER_15_23
*566 FILLER_15_38
*567 FILLER_15_50
*568 FILLER_15_57
*569 FILLER_15_75
*570 FILLER_15_79
*571 FILLER_16_11
*572 FILLER_16_119
*573 FILLER_16_137
*574 FILLER_16_141
*575 FILLER_16_149
*576 FILLER_16_173
*577 FILLER_16_185
*578 FILLER_16_22
*579 FILLER_16_29
*580 FILLER_16_3
*581 FILLER_16_37
*582 FILLER_16_50
*583 FILLER_16_62
*584 FILLER_16_70
*585 FILLER_16_82
*586 FILLER_16_85
*587 FILLER_16_95
*588 FILLER_17_105
*589 FILLER_17_11
*590 FILLER_17_111
*591 FILLER_17_113
*592 FILLER_17_125
*593 FILLER_17_153
*594 FILLER_17_166
*595 FILLER_17_176
*596 FILLER_17_188
*597 FILLER_17_3
*598 FILLER_17_31
*599 FILLER_17_47
*600 FILLER_17_55
*601 FILLER_17_57
*602 FILLER_17_62
*603 FILLER_17_68
*604 FILLER_17_77
*605 FILLER_17_85
*606 FILLER_17_93
*607 FILLER_18_103
*608 FILLER_18_11
*609 FILLER_18_120
*610 FILLER_18_132
*611 FILLER_18_141
*612 FILLER_18_153
*613 FILLER_18_165
*614 FILLER_18_177
*615 FILLER_18_181
*616 FILLER_18_185
*617 FILLER_18_29
*618 FILLER_18_3
*619 FILLER_18_35
*620 FILLER_18_46
*621 FILLER_18_82
*622 FILLER_19_106
*623 FILLER_19_113
*624 FILLER_19_131
*625 FILLER_19_139
*626 FILLER_19_147
*627 FILLER_19_15
*628 FILLER_19_159
*629 FILLER_19_167
*630 FILLER_19_3
*631 FILLER_19_30
*632 FILLER_19_38
*633 FILLER_19_47
*634 FILLER_19_55
*635 FILLER_19_57
*636 FILLER_19_80
*637 FILLER_19_88
*638 FILLER_1_113
*639 FILLER_1_15
*640 FILLER_1_155
*641 FILLER_1_167
*642 FILLER_1_169
*643 FILLER_1_181
*644 FILLER_1_185
*645 FILLER_1_27
*646 FILLER_1_3
*647 FILLER_1_35
*648 FILLER_1_80
*649 FILLER_1_87
*650 FILLER_20_101
*651 FILLER_20_113
*652 FILLER_20_123
*653 FILLER_20_134
*654 FILLER_20_166
*655 FILLER_20_178
*656 FILLER_20_27
*657 FILLER_20_3
*658 FILLER_20_32
*659 FILLER_20_36
*660 FILLER_20_42
*661 FILLER_20_54
*662 FILLER_20_66
*663 FILLER_20_70
*664 FILLER_20_78
*665 FILLER_20_85
*666 FILLER_20_91
*667 FILLER_20_95
*668 FILLER_21_105
*669 FILLER_21_11
*670 FILLER_21_133
*671 FILLER_21_147
*672 FILLER_21_151
*673 FILLER_21_158
*674 FILLER_21_166
*675 FILLER_21_169
*676 FILLER_21_181
*677 FILLER_21_185
*678 FILLER_21_26
*679 FILLER_21_3
*680 FILLER_21_51
*681 FILLER_21_55
*682 FILLER_21_57
*683 FILLER_21_69
*684 FILLER_22_104
*685 FILLER_22_11
*686 FILLER_22_112
*687 FILLER_22_127
*688 FILLER_22_139
*689 FILLER_22_141
*690 FILLER_22_149
*691 FILLER_22_161
*692 FILLER_22_27
*693 FILLER_22_29
*694 FILLER_22_3
*695 FILLER_22_41
*696 FILLER_22_57
*697 FILLER_22_68
*698 FILLER_22_79
*699 FILLER_22_83
*700 FILLER_22_85
*701 FILLER_23_107
*702 FILLER_23_111
*703 FILLER_23_113
*704 FILLER_23_128
*705 FILLER_23_139
*706 FILLER_23_151
*707 FILLER_23_163
*708 FILLER_23_167
*709 FILLER_23_169
*710 FILLER_23_181
*711 FILLER_23_32
*712 FILLER_23_49
*713 FILLER_23_55
*714 FILLER_23_57
*715 FILLER_23_65
*716 FILLER_23_73
*717 FILLER_23_81
*718 FILLER_23_95
*719 FILLER_24_102
*720 FILLER_24_110
*721 FILLER_24_121
*722 FILLER_24_129
*723 FILLER_24_13
*724 FILLER_24_139
*725 FILLER_24_146
*726 FILLER_24_158
*727 FILLER_24_170
*728 FILLER_24_185
*729 FILLER_24_24
*730 FILLER_24_29
*731 FILLER_24_45
*732 FILLER_24_53
*733 FILLER_24_6
*734 FILLER_24_64
*735 FILLER_24_78
*736 FILLER_24_85
*737 FILLER_24_91
*738 FILLER_25_105
*739 FILLER_25_111
*740 FILLER_25_119
*741 FILLER_25_131
*742 FILLER_25_138
*743 FILLER_25_15
*744 FILLER_25_153
*745 FILLER_25_165
*746 FILLER_25_25
*747 FILLER_25_3
*748 FILLER_25_37
*749 FILLER_25_55
*750 FILLER_25_61
*751 FILLER_25_67
*752 FILLER_25_76
*753 FILLER_25_97
*754 FILLER_26_10
*755 FILLER_26_128
*756 FILLER_26_136
*757 FILLER_26_14
*758 FILLER_26_141
*759 FILLER_26_153
*760 FILLER_26_165
*761 FILLER_26_177
*762 FILLER_26_185
*763 FILLER_26_20
*764 FILLER_26_29
*765 FILLER_26_42
*766 FILLER_26_51
*767 FILLER_26_57
*768 FILLER_26_6
*769 FILLER_26_69
*770 FILLER_26_76
*771 FILLER_26_85
*772 FILLER_26_97
*773 FILLER_27_105
*774 FILLER_27_111
*775 FILLER_27_113
*776 FILLER_27_125
*777 FILLER_27_137
*778 FILLER_27_149
*779 FILLER_27_161
*780 FILLER_27_167
*781 FILLER_27_169
*782 FILLER_27_181
*783 FILLER_27_185
*784 FILLER_27_23
*785 FILLER_27_27
*786 FILLER_27_54
*787 FILLER_27_57
*788 FILLER_27_76
*789 FILLER_27_82
*790 FILLER_27_93
*791 FILLER_28_102
*792 FILLER_28_110
*793 FILLER_28_122
*794 FILLER_28_134
*795 FILLER_28_141
*796 FILLER_28_15
*797 FILLER_28_153
*798 FILLER_28_165
*799 FILLER_28_27
*800 FILLER_28_29
*801 FILLER_28_3
*802 FILLER_28_40
*803 FILLER_28_52
*804 FILLER_28_64
*805 FILLER_28_76
*806 FILLER_28_85
*807 FILLER_28_96
*808 FILLER_29_105
*809 FILLER_29_109
*810 FILLER_29_113
*811 FILLER_29_125
*812 FILLER_29_137
*813 FILLER_29_149
*814 FILLER_29_15
*815 FILLER_29_161
*816 FILLER_29_167
*817 FILLER_29_169
*818 FILLER_29_181
*819 FILLER_29_185
*820 FILLER_29_27
*821 FILLER_29_3
*822 FILLER_29_35
*823 FILLER_29_57
*824 FILLER_29_69
*825 FILLER_29_93
*826 FILLER_2_109
*827 FILLER_2_115
*828 FILLER_2_135
*829 FILLER_2_139
*830 FILLER_2_141
*831 FILLER_2_147
*832 FILLER_2_15
*833 FILLER_2_158
*834 FILLER_2_27
*835 FILLER_2_29
*836 FILLER_2_3
*837 FILLER_2_37
*838 FILLER_2_59
*839 FILLER_2_83
*840 FILLER_2_88
*841 FILLER_2_96
*842 FILLER_30_136
*843 FILLER_30_141
*844 FILLER_30_15
*845 FILLER_30_153
*846 FILLER_30_165
*847 FILLER_30_177
*848 FILLER_30_27
*849 FILLER_30_29
*850 FILLER_30_3
*851 FILLER_30_41
*852 FILLER_30_68
*853 FILLER_30_80
*854 FILLER_30_88
*855 FILLER_30_92
*856 FILLER_31_109
*857 FILLER_31_113
*858 FILLER_31_118
*859 FILLER_31_130
*860 FILLER_31_139
*861 FILLER_31_141
*862 FILLER_31_15
*863 FILLER_31_153
*864 FILLER_31_165
*865 FILLER_31_169
*866 FILLER_31_181
*867 FILLER_31_27
*868 FILLER_31_29
*869 FILLER_31_3
*870 FILLER_31_41
*871 FILLER_31_52
*872 FILLER_31_57
*873 FILLER_31_62
*874 FILLER_31_69
*875 FILLER_31_81
*876 FILLER_31_85
*877 FILLER_31_93
*878 FILLER_31_97
*879 FILLER_3_105
*880 FILLER_3_111
*881 FILLER_3_113
*882 FILLER_3_117
*883 FILLER_3_129
*884 FILLER_3_151
*885 FILLER_3_163
*886 FILLER_3_167
*887 FILLER_3_174
*888 FILLER_3_178
*889 FILLER_3_3
*890 FILLER_3_35
*891 FILLER_3_47
*892 FILLER_3_52
*893 FILLER_3_57
*894 FILLER_3_69
*895 FILLER_3_93
*896 FILLER_4_102
*897 FILLER_4_108
*898 FILLER_4_125
*899 FILLER_4_137
*900 FILLER_4_141
*901 FILLER_4_149
*902 FILLER_4_161
*903 FILLER_4_173
*904 FILLER_4_18
*905 FILLER_4_185
*906 FILLER_4_26
*907 FILLER_4_32
*908 FILLER_4_44
*909 FILLER_4_56
*910 FILLER_4_6
*911 FILLER_4_68
*912 FILLER_4_80
*913 FILLER_4_85
*914 FILLER_4_91
*915 FILLER_5_118
*916 FILLER_5_126
*917 FILLER_5_137
*918 FILLER_5_143
*919 FILLER_5_151
*920 FILLER_5_158
*921 FILLER_5_167
*922 FILLER_5_172
*923 FILLER_5_180
*924 FILLER_5_185
*925 FILLER_5_23
*926 FILLER_5_35
*927 FILLER_5_40
*928 FILLER_5_52
*929 FILLER_5_71
*930 FILLER_5_83
*931 FILLER_6_106
*932 FILLER_6_112
*933 FILLER_6_120
*934 FILLER_6_132
*935 FILLER_6_141
*936 FILLER_6_147
*937 FILLER_6_163
*938 FILLER_6_23
*939 FILLER_6_27
*940 FILLER_6_29
*941 FILLER_6_37
*942 FILLER_6_45
*943 FILLER_6_85
*944 FILLER_6_98
*945 FILLER_7_102
*946 FILLER_7_110
*947 FILLER_7_113
*948 FILLER_7_125
*949 FILLER_7_133
*950 FILLER_7_147
*951 FILLER_7_154
*952 FILLER_7_16
*953 FILLER_7_166
*954 FILLER_7_169
*955 FILLER_7_181
*956 FILLER_7_48
*957 FILLER_7_57
*958 FILLER_7_77
*959 FILLER_7_86
*960 FILLER_7_9
*961 FILLER_8_101
*962 FILLER_8_126
*963 FILLER_8_141
*964 FILLER_8_149
*965 FILLER_8_153
*966 FILLER_8_167
*967 FILLER_8_172
*968 FILLER_8_180
*969 FILLER_8_185
*970 FILLER_8_23
*971 FILLER_8_27
*972 FILLER_8_29
*973 FILLER_8_33
*974 FILLER_8_42
*975 FILLER_8_54
*976 FILLER_8_66
*977 FILLER_8_73
*978 FILLER_8_81
*979 FILLER_9_123
*980 FILLER_9_135
*981 FILLER_9_144
*982 FILLER_9_156
*983 FILLER_9_162
*984 FILLER_9_28
*985 FILLER_9_3
*986 FILLER_9_32
*987 FILLER_9_36
*988 FILLER_9_44
*989 FILLER_9_52
*990 FILLER_9_57
*991 FILLER_9_65
*992 FILLER_9_86
*993 PHY_EDGE_ROW_0_Left_32
*994 PHY_EDGE_ROW_0_Right_0
*995 PHY_EDGE_ROW_10_Left_42
*996 PHY_EDGE_ROW_10_Right_10
*997 PHY_EDGE_ROW_11_Left_43
*998 PHY_EDGE_ROW_11_Right_11
*999 PHY_EDGE_ROW_12_Left_44
*1000 PHY_EDGE_ROW_12_Right_12
*1001 PHY_EDGE_ROW_13_Left_45
*1002 PHY_EDGE_ROW_13_Right_13
*1003 PHY_EDGE_ROW_14_Left_46
*1004 PHY_EDGE_ROW_14_Right_14
*1005 PHY_EDGE_ROW_15_Left_47
*1006 PHY_EDGE_ROW_15_Right_15
*1007 PHY_EDGE_ROW_16_Left_48
*1008 PHY_EDGE_ROW_16_Right_16
*1009 PHY_EDGE_ROW_17_Left_49
*1010 PHY_EDGE_ROW_17_Right_17
*1011 PHY_EDGE_ROW_18_Left_50
*1012 PHY_EDGE_ROW_18_Right_18
*1013 PHY_EDGE_ROW_19_Left_51
*1014 PHY_EDGE_ROW_19_Right_19
*1015 PHY_EDGE_ROW_1_Left_33
*1016 PHY_EDGE_ROW_1_Right_1
*1017 PHY_EDGE_ROW_20_Left_52
*1018 PHY_EDGE_ROW_20_Right_20
*1019 PHY_EDGE_ROW_21_Left_53
*1020 PHY_EDGE_ROW_21_Right_21
*1021 PHY_EDGE_ROW_22_Left_54
*1022 PHY_EDGE_ROW_22_Right_22
*1023 PHY_EDGE_ROW_23_Left_55
*1024 PHY_EDGE_ROW_23_Right_23
*1025 PHY_EDGE_ROW_24_Left_56
*1026 PHY_EDGE_ROW_24_Right_24
*1027 PHY_EDGE_ROW_25_Left_57
*1028 PHY_EDGE_ROW_25_Right_25
*1029 PHY_EDGE_ROW_26_Left_58
*1030 PHY_EDGE_ROW_26_Right_26
*1031 PHY_EDGE_ROW_27_Left_59
*1032 PHY_EDGE_ROW_27_Right_27
*1033 PHY_EDGE_ROW_28_Left_60
*1034 PHY_EDGE_ROW_28_Right_28
*1035 PHY_EDGE_ROW_29_Left_61
*1036 PHY_EDGE_ROW_29_Right_29
*1037 PHY_EDGE_ROW_2_Left_34
*1038 PHY_EDGE_ROW_2_Right_2
*1039 PHY_EDGE_ROW_30_Left_62
*1040 PHY_EDGE_ROW_30_Right_30
*1041 PHY_EDGE_ROW_31_Left_63
*1042 PHY_EDGE_ROW_31_Right_31
*1043 PHY_EDGE_ROW_3_Left_35
*1044 PHY_EDGE_ROW_3_Right_3
*1045 PHY_EDGE_ROW_4_Left_36
*1046 PHY_EDGE_ROW_4_Right_4
*1047 PHY_EDGE_ROW_5_Left_37
*1048 PHY_EDGE_ROW_5_Right_5
*1049 PHY_EDGE_ROW_6_Left_38
*1050 PHY_EDGE_ROW_6_Right_6
*1051 PHY_EDGE_ROW_7_Left_39
*1052 PHY_EDGE_ROW_7_Right_7
*1053 PHY_EDGE_ROW_8_Left_40
*1054 PHY_EDGE_ROW_8_Right_8
*1055 PHY_EDGE_ROW_9_Left_41
*1056 PHY_EDGE_ROW_9_Right_9
*1057 TAP_TAPCELL_ROW_0_64
*1058 TAP_TAPCELL_ROW_0_65
*1059 TAP_TAPCELL_ROW_0_66
*1060 TAP_TAPCELL_ROW_0_67
*1061 TAP_TAPCELL_ROW_0_68
*1062 TAP_TAPCELL_ROW_0_69
*1063 TAP_TAPCELL_ROW_10_97
*1064 TAP_TAPCELL_ROW_10_98
*1065 TAP_TAPCELL_ROW_10_99
*1066 TAP_TAPCELL_ROW_11_100
*1067 TAP_TAPCELL_ROW_11_101
*1068 TAP_TAPCELL_ROW_11_102
*1069 TAP_TAPCELL_ROW_12_103
*1070 TAP_TAPCELL_ROW_12_104
*1071 TAP_TAPCELL_ROW_12_105
*1072 TAP_TAPCELL_ROW_13_106
*1073 TAP_TAPCELL_ROW_13_107
*1074 TAP_TAPCELL_ROW_13_108
*1075 TAP_TAPCELL_ROW_14_109
*1076 TAP_TAPCELL_ROW_14_110
*1077 TAP_TAPCELL_ROW_14_111
*1078 TAP_TAPCELL_ROW_15_112
*1079 TAP_TAPCELL_ROW_15_113
*1080 TAP_TAPCELL_ROW_15_114
*1081 TAP_TAPCELL_ROW_16_115
*1082 TAP_TAPCELL_ROW_16_116
*1083 TAP_TAPCELL_ROW_16_117
*1084 TAP_TAPCELL_ROW_17_118
*1085 TAP_TAPCELL_ROW_17_119
*1086 TAP_TAPCELL_ROW_17_120
*1087 TAP_TAPCELL_ROW_18_121
*1088 TAP_TAPCELL_ROW_18_122
*1089 TAP_TAPCELL_ROW_18_123
*1090 TAP_TAPCELL_ROW_19_124
*1091 TAP_TAPCELL_ROW_19_125
*1092 TAP_TAPCELL_ROW_19_126
*1093 TAP_TAPCELL_ROW_1_70
*1094 TAP_TAPCELL_ROW_1_71
*1095 TAP_TAPCELL_ROW_1_72
*1096 TAP_TAPCELL_ROW_20_127
*1097 TAP_TAPCELL_ROW_20_128
*1098 TAP_TAPCELL_ROW_20_129
*1099 TAP_TAPCELL_ROW_21_130
*1100 TAP_TAPCELL_ROW_21_131
*1101 TAP_TAPCELL_ROW_21_132
*1102 TAP_TAPCELL_ROW_22_133
*1103 TAP_TAPCELL_ROW_22_134
*1104 TAP_TAPCELL_ROW_22_135
*1105 TAP_TAPCELL_ROW_23_136
*1106 TAP_TAPCELL_ROW_23_137
*1107 TAP_TAPCELL_ROW_23_138
*1108 TAP_TAPCELL_ROW_24_139
*1109 TAP_TAPCELL_ROW_24_140
*1110 TAP_TAPCELL_ROW_24_141
*1111 TAP_TAPCELL_ROW_25_142
*1112 TAP_TAPCELL_ROW_25_143
*1113 TAP_TAPCELL_ROW_25_144
*1114 TAP_TAPCELL_ROW_26_145
*1115 TAP_TAPCELL_ROW_26_146
*1116 TAP_TAPCELL_ROW_26_147
*1117 TAP_TAPCELL_ROW_27_148
*1118 TAP_TAPCELL_ROW_27_149
*1119 TAP_TAPCELL_ROW_27_150
*1120 TAP_TAPCELL_ROW_28_151
*1121 TAP_TAPCELL_ROW_28_152
*1122 TAP_TAPCELL_ROW_28_153
*1123 TAP_TAPCELL_ROW_29_154
*1124 TAP_TAPCELL_ROW_29_155
*1125 TAP_TAPCELL_ROW_29_156
*1126 TAP_TAPCELL_ROW_2_73
*1127 TAP_TAPCELL_ROW_2_74
*1128 TAP_TAPCELL_ROW_2_75
*1129 TAP_TAPCELL_ROW_30_157
*1130 TAP_TAPCELL_ROW_30_158
*1131 TAP_TAPCELL_ROW_30_159
*1132 TAP_TAPCELL_ROW_31_160
*1133 TAP_TAPCELL_ROW_31_161
*1134 TAP_TAPCELL_ROW_31_162
*1135 TAP_TAPCELL_ROW_31_163
*1136 TAP_TAPCELL_ROW_31_164
*1137 TAP_TAPCELL_ROW_31_165
*1138 TAP_TAPCELL_ROW_3_76
*1139 TAP_TAPCELL_ROW_3_77
*1140 TAP_TAPCELL_ROW_3_78
*1141 TAP_TAPCELL_ROW_4_79
*1142 TAP_TAPCELL_ROW_4_80
*1143 TAP_TAPCELL_ROW_4_81
*1144 TAP_TAPCELL_ROW_5_82
*1145 TAP_TAPCELL_ROW_5_83
*1146 TAP_TAPCELL_ROW_5_84
*1147 TAP_TAPCELL_ROW_6_85
*1148 TAP_TAPCELL_ROW_6_86
*1149 TAP_TAPCELL_ROW_6_87
*1150 TAP_TAPCELL_ROW_7_88
*1151 TAP_TAPCELL_ROW_7_89
*1152 TAP_TAPCELL_ROW_7_90
*1153 TAP_TAPCELL_ROW_8_91
*1154 TAP_TAPCELL_ROW_8_92
*1155 TAP_TAPCELL_ROW_8_93
*1156 TAP_TAPCELL_ROW_9_94
*1157 TAP_TAPCELL_ROW_9_95
*1158 TAP_TAPCELL_ROW_9_96
*1159 _321_
*1160 _322_
*1161 _323_
*1162 _324_
*1163 _325_
*1164 _326_
*1165 _327_
*1166 _328_
*1167 _329_
*1168 _330_
*1169 _331_
*1170 _332_
*1171 _333_
*1172 _334_
*1173 _335_
*1174 _336_
*1175 _337_
*1176 _338_
*1177 _339_
*1178 _340_
*1179 _341_
*1180 _342_
*1181 _343_
*1182 _344_
*1183 _345_
*1184 _346_
*1185 _347_
*1186 _348_
*1187 _349_
*1188 _350_
*1189 _351_
*1190 _352_
*1191 _353_
*1192 _354_
*1193 _355_
*1194 _356_
*1195 _357_
*1196 _358_
*1197 _359_
*1198 _360_
*1199 _361_
*1200 _362_
*1201 _363_
*1202 _364_
*1203 _365_
*1204 _366_
*1205 _367_
*1206 _368_
*1207 _369_
*1208 _370_
*1209 _371_
*1210 _372_
*1211 _373_
*1212 _374_
*1213 _375_
*1214 _376_
*1215 _377_
*1216 _378_
*1217 _379_
*1218 _380_
*1219 _381_
*1220 _382_
*1221 _383_
*1222 _384_
*1223 _385_
*1224 _386_
*1225 _387_
*1226 _388_
*1227 _389_
*1228 _390_
*1229 _391_
*1230 _392_
*1231 _393_
*1232 _394_
*1233 _395_
*1234 _396_
*1235 _397_
*1236 _398_
*1237 _399_
*1238 _400_
*1239 _401_
*1240 _402_
*1241 _403_
*1242 _404_
*1243 _405_
*1244 _406_
*1245 _407_
*1246 _408_
*1247 _409_
*1248 _410_
*1249 _411_
*1250 _412_
*1251 _413_
*1252 _414_
*1253 _415_
*1254 _416_
*1255 _417_
*1256 _418_
*1257 _419_
*1258 _420_
*1259 _421_
*1260 _422_
*1261 _423_
*1262 _424_
*1263 _425_
*1264 _426_
*1265 _427_
*1266 _428_
*1267 _429_
*1268 _430_
*1269 _431_
*1270 _432_
*1271 _433_
*1272 _434_
*1273 _435_
*1274 _436_
*1275 _437_
*1276 _438_
*1277 _439_
*1278 _440_
*1279 _441_
*1280 _442_
*1281 _443_
*1282 _444_
*1283 _445_
*1284 _446_
*1285 _447_
*1286 _448_
*1287 _449_
*1288 _450_
*1289 _451_
*1290 _452_
*1291 _453_
*1292 _454_
*1293 _455_
*1294 _456_
*1295 _457_
*1296 _458_
*1297 _459_
*1298 _460_
*1299 _461_
*1300 _462_
*1301 _463_
*1302 _464_
*1303 _465_
*1304 _466_
*1305 _467_
*1306 _468_
*1307 _469_
*1308 _470_
*1309 _471_
*1310 _472_
*1311 _473_
*1312 _474_
*1313 _475_
*1314 _476_
*1315 _477_
*1316 _478_
*1317 _479_
*1318 _480_
*1319 _481_
*1320 _482_
*1321 _483_
*1322 _484_
*1323 _485_
*1324 _486_
*1325 _487_
*1326 _488_
*1327 _489_
*1328 _490_
*1329 _491_
*1330 _492_
*1331 _493_
*1332 _494_
*1333 _495_
*1334 _496_
*1335 _497_
*1336 _498_
*1337 _499_
*1338 _500_
*1339 _501_
*1340 _502_
*1341 _503_
*1342 _504_
*1343 _505_
*1344 _506_
*1345 _507_
*1346 _508_
*1347 _509_
*1348 _510_
*1349 _511_
*1350 _512_
*1351 _513_
*1352 _514_
*1353 _515_
*1354 _516_
*1355 _517_
*1356 _518_
*1357 _519_
*1358 _520_
*1359 _521_
*1360 _522_
*1361 _523_
*1362 _524_
*1363 _525_
*1364 _526_
*1365 _527_
*1366 _528_
*1367 _529_
*1368 _530_
*1369 _531_
*1370 _532_
*1371 _533_
*1372 _534_
*1373 _535_
*1374 _536_
*1375 _537_
*1376 _538_
*1377 _539_
*1378 _540_
*1379 _541_
*1380 _542_
*1381 _543_
*1382 _544_
*1383 _545_
*1384 _546_
*1385 _547_
*1386 _548_
*1387 _549_
*1388 _550_
*1389 _551_
*1390 _552_
*1391 _553_
*1392 _554_
*1393 _555_
*1394 _556_
*1395 _557_
*1396 _558_
*1397 _559_
*1398 _560_
*1399 _561_
*1400 _562_
*1401 _563_
*1402 _564_
*1403 _565_
*1404 _566_
*1405 _567_
*1406 _568_
*1407 _569_
*1408 _570_
*1409 _571_
*1410 _572_
*1411 _573_
*1412 _574_
*1413 _575_
*1414 _576_
*1415 _577_
*1416 _578_
*1417 _579_
*1418 _580_
*1419 _581_
*1420 _582_
*1421 _583_
*1422 _584_
*1423 _585_
*1424 _586_
*1425 _587_
*1426 _588_
*1427 _589_
*1428 _590_
*1429 _591_
*1430 _592_
*1431 _593_
*1432 _594_
*1433 _595_
*1434 _596_
*1435 _597_
*1436 _598_
*1437 _599_
*1438 _600_
*1439 _601_
*1440 _602_
*1441 _603_
*1442 _604_
*1443 _605_
*1444 _606_
*1445 _607_
*1446 _608_
*1447 _609_
*1448 _610_
*1449 _611_
*1450 _612_
*1451 _613_
*1452 _614_
*1453 _615_
*1454 _616_
*1455 _617_
*1456 _618_
*1457 _619_
*1458 _620_
*1459 _621_
*1460 _622_
*1461 _623_
*1462 _624_
*1463 _625_
*1464 _626_
*1465 _627_
*1466 _628_
*1467 _629_
*1468 _630_
*1469 _631_
*1470 _632_
*1471 _633_
*1472 _634_
*1473 _635_
*1474 _636_
*1475 _637_
*1476 _638_
*1477 _639_
*1478 _640_
*1479 _641_
*1480 _642_
*1481 _643_
*1482 _644_
*1483 _645_
*1484 _646_
*1485 _647_
*1486 _648_
*1487 _649_
*1488 _650_
*1489 _651_
*1490 _652_
*1491 _653_
*1492 _654_
*1493 _655_
*1494 _656_
*1495 _657_
*1496 _658_
*1497 _659_
*1498 _660_
*1499 _661_
*1500 _662_
*1501 _663_
*1502 _664_
*1503 _665_
*1504 _666_
*1505 _667_
*1506 _668_
*1507 _669_
*1508 _670_
*1509 _671_
*1510 _672_
*1511 _673_
*1512 _674_
*1513 _675_
*1514 _676_
*1515 _677_
*1516 _678_
*1517 _679_
*1518 _680_
*1519 _681_
*1520 _682_
*1521 _683_
*1522 _684_
*1523 _685_
*1524 _686_
*1525 _687_
*1526 _688_
*1527 _689_
*1528 clkbuf_0_clk
*1529 clkbuf_2_0__f_clk
*1530 clkbuf_2_1__f_clk
*1531 clkbuf_2_2__f_clk
*1532 clkbuf_2_3__f_clk
*1533 clkload0
*1534 clkload1
*1535 clkload2
*1536 fanout34
*1537 fanout35
*1538 fanout36
*1539 fanout37
*1540 fanout38
*1541 fanout39
*1542 fanout40
*1543 fanout41
*1544 fanout42
*1545 fanout43
*1546 fanout44
*1547 fanout45
*1548 fanout46
*1549 fanout47
*1550 fanout48
*1551 fanout49
*1552 fanout50
*1553 fanout51
*1554 fanout52
*1555 fanout53
*1556 fanout54
*1557 fanout55
*1558 fanout56
*1559 fanout57
*1560 fanout58
*1561 fanout59
*1562 fanout60
*1563 fanout61
*1564 input1
*1565 input10
*1566 input11
*1567 input12
*1568 input13
*1569 input14
*1570 input15
*1571 input16
*1572 input17
*1573 input2
*1574 input3
*1575 input4
*1576 input5
*1577 input6
*1578 input7
*1579 input8
*1580 input9
*1581 output18
*1582 output19
*1583 output20
*1584 output21
*1585 output22
*1586 output23
*1587 output24
*1588 output25
*1589 output26
*1590 output27
*1591 output28
*1592 output29
*1593 output30
*1594 output31
*1595 output32
*1596 output33

*PORTS
a[0] I
a[1] I
a[2] I
a[3] I
a[4] I
a[5] I
a[6] I
a[7] I
b[0] I
b[1] I
b[2] I
b[3] I
b[4] I
b[5] I
b[6] I
b[7] I
clk I
product[0] O
product[10] O
product[11] O
product[12] O
product[13] O
product[14] O
product[15] O
product[1] O
product[2] O
product[3] O
product[4] O
product[5] O
product[6] O
product[7] O
product[8] O
product[9] O
rst I

*D_NET *3 0.00173075
*CONN
*P a[0] I
*I *1564:A I *D sky130_fd_sc_hd__clkbuf_1
*CAP
1 a[0] 0.000621347
2 *1564:A 0
3 *3:13 0.000621347
4 *3:13 *4:13 0.000488055
*RES
1 a[0] *3:13 44.2307 
2 *3:13 *1564:A 38 
*END

*D_NET *4 0.00279734
*CONN
*P a[1] I
*I *1573:A I *D sky130_fd_sc_hd__clkbuf_1
*CAP
1 a[1] 0.00115464
2 *1573:A 0
3 *4:13 0.00115464
4 *3:13 *4:13 0.000488055
*RES
1 a[1] *4:13 49.4714 
2 *4:13 *1573:A 38 
*END

*D_NET *5 0.0012783
*CONN
*P a[2] I
*I *1574:A I *D sky130_fd_sc_hd__clkbuf_1
*CAP
1 a[2] 0.000569658
2 *1574:A 0.000569658
3 *1574:A *1480:A 1.24376e-05
4 *1574:A *1566:A 0
5 *1574:A *433:35 0.000126543
*RES
1 a[2] *1574:A 49.3721 
*END

*D_NET *6 0.00101146
*CONN
*P a[3] I
*I *1575:A I *D sky130_fd_sc_hd__clkbuf_1
*CAP
1 a[3] 0.000505732
2 *1575:A 0.000505732
3 *1575:A *1565:A 0
*RES
1 a[3] *1575:A 48.5643 
*END

*D_NET *7 0.000680457
*CONN
*P a[4] I
*I *1576:A I *D sky130_fd_sc_hd__clkbuf_1
*CAP
1 a[4] 0.000329606
2 *1576:A 0
3 *7:17 0.000329606
4 *7:17 *14:11 2.12457e-05
5 *7:17 *375:47 0
*RES
1 a[4] *7:17 27.1584 
2 *7:17 *1576:A 23 
*END

*D_NET *8 0.000996068
*CONN
*P a[5] I
*I *1577:A I *D sky130_fd_sc_hd__clkbuf_1
*CAP
1 a[5] 0.000342663
2 *1577:A 0
3 *8:15 0.000342663
4 *8:15 *9:11 3.49463e-05
5 *8:15 *15:17 0.000258455
6 *8:15 *375:85 0
7 *8:15 *383:10 1.73399e-05
*RES
1 a[5] *8:15 29.1596 
2 *8:15 *1577:A 23 
*END

*D_NET *9 0.00188374
*CONN
*P a[6] I
*I *1578:A I *D sky130_fd_sc_hd__clkbuf_1
*CAP
1 a[6] 0.000560779
2 *1578:A 0
3 *9:11 0.000560779
4 *9:11 *1579:A 2.79122e-05
5 *9:11 *14:11 0
6 *9:11 *375:74 0
7 *9:11 *375:85 0
8 *9:11 *432:56 0.000183171
9 *9:11 *432:69 0.000216051
10 *9:11 *437:10 0.000300098
11 *8:15 *9:11 3.49463e-05
*RES
1 a[6] *9:11 29.6959 
2 *9:11 *1578:A 23 
*END

*D_NET *10 0.000636746
*CONN
*P a[7] I
*I *1579:A I *D sky130_fd_sc_hd__clkbuf_1
*CAP
1 a[7] 0.000293794
2 *1579:A 0.000293794
3 *1579:A *14:11 2.12457e-05
4 *9:11 *1579:A 2.79122e-05
*RES
1 a[7] *1579:A 49.8062 
*END

*D_NET *11 0.00108234
*CONN
*P b[0] I
*I *1580:A I *D sky130_fd_sc_hd__clkbuf_1
*CAP
1 b[0] 0.000470193
2 *1580:A 0.000470193
3 *1580:A *433:35 0.00014196
*RES
1 b[0] *1580:A 48.2743 
*END

*D_NET *12 0.00100551
*CONN
*P b[1] I
*I *1565:A I *D sky130_fd_sc_hd__clkbuf_1
*CAP
1 b[1] 0.000502753
2 *1565:A 0.000502753
3 *1565:A *1566:A 0
4 *1575:A *1565:A 0
*RES
1 b[1] *1565:A 48.2743 
*END

*D_NET *13 0.00120601
*CONN
*P b[2] I
*I *1566:A I *D sky130_fd_sc_hd__clkbuf_1
*CAP
1 b[2] 0.000555018
2 *1566:A 0.000555018
3 *1566:A *1480:A 8.98012e-05
4 *1566:A *53:10 6.17437e-06
5 *1566:A *433:35 0
6 *1565:A *1566:A 0
7 *1574:A *1566:A 0
*RES
1 b[2] *1566:A 49.6 
*END

*D_NET *14 0.00122753
*CONN
*P b[3] I
*I *1567:A I *D sky130_fd_sc_hd__clkbuf_1
*CAP
1 b[3] 0.000534273
2 *1567:A 0
3 *14:11 0.000534273
4 *14:11 *375:65 0
5 *14:11 *382:8 0.000116491
6 *14:11 *432:45 0
7 *1579:A *14:11 2.12457e-05
8 *7:17 *14:11 2.12457e-05
9 *9:11 *14:11 0
*RES
1 b[3] *14:11 28.3818 
2 *14:11 *1567:A 23 
*END

*D_NET *15 0.000859943
*CONN
*P b[4] I
*I *1568:A I *D sky130_fd_sc_hd__clkbuf_1
*CAP
1 b[4] 0.000290121
2 *1568:A 0
3 *15:17 0.000290121
4 *15:17 *16:17 2.12457e-05
5 *15:17 *375:85 0
6 *8:15 *15:17 0.000258455
*RES
1 b[4] *15:17 27.8627 
2 *15:17 *1568:A 23 
*END

*D_NET *16 0.000831682
*CONN
*P b[5] I
*I *1569:A I *D sky130_fd_sc_hd__clkbuf_1
*CAP
1 b[5] 0.000405218
2 *1569:A 0
3 *16:17 0.000405218
4 *16:17 *17:17 0
5 *16:17 *384:10 0
6 *15:17 *16:17 2.12457e-05
*RES
1 b[5] *16:17 29.2712 
2 *16:17 *1569:A 23 
*END

*D_NET *17 0.00064936
*CONN
*P b[6] I
*I *1570:A I *D sky130_fd_sc_hd__clkbuf_1
*CAP
1 b[6] 0.00032468
2 *1570:A 0
3 *17:17 0.00032468
4 *16:17 *17:17 0
*RES
1 b[6] *17:17 27.1584 
2 *17:17 *1570:A 23 
*END

*D_NET *18 0.000967125
*CONN
*P b[7] I
*I *1571:A I *D sky130_fd_sc_hd__clkbuf_1
*CAP
1 b[7] 0.000381537
2 *1571:A 0.000381537
3 *1571:A *19:9 4.41619e-05
4 *1571:A *377:20 4.82745e-05
5 *1571:A *386:8 0.000111615
*RES
1 b[7] *1571:A 49.8991 
*END

*D_NET *19 0.0127703
*CONN
*P clk I
*I *1528:A I *D sky130_fd_sc_hd__clkbuf_16