*SPEF "ieee 1481-1999"
*DESIGN "mult"
*DATE "01:41:24 Tuesday November 25, 2025"
*VENDOR "The OpenROAD Project"
*PROGRAM "OpenROAD"
*VERSION "edf00dff99f6c40d67a30c0e22a8191c5d2ed9d6"
*DESIGN_FLOW "NAME_SCOPE LOCAL" "PIN_CAP NONE"
*DIVIDER /
*DELIMITER :
*BUS_DELIMITER []
*T_UNIT 1 NS
*C_UNIT 1 PF
*R_UNIT 1 OHM
*L_UNIT 1 HENRY

*NAME_MAP
*3 a[0]
*4 a[1]
*5 a[2]
*6 a[3]
*7 a[4]
*8 a[5]
*9 a[6]
*10 a[7]
*11 b[0]
*12 b[1]
*13 b[2]
*14 b[3]
*15 b[4]
*16 b[5]
*17 b[6]
*18 b[7]
*19 clk
*20 product[0]
*21 product[10]
*22 product[11]
*23 product[12]
*24 product[13]
*25 product[14]
*26 product[15]
*27 product[1]
*28 product[2]
*29 product[3]
*30 product[4]
*31 product[5]
*32 product[6]
*33 product[7]
*34 product[8]
*35 product[9]
*36 rst
*37 _000_
*38 _001_
*39 _002_
*40 _003_
*41 _004_
*42 _005_
*43 _006_
*44 _007_
*45 _008_
*46 _009_
*47 _010_
*48 _011_
*49 _012_
*50 _013_
*51 _014_
*52 _015_
*53 _016_
*54 _017_
*55 _018_
*56 _019_
*57 _020_
*58 _021_
*59 _022_
*60 _023_
*61 _024_
*62 _025_
*63 _026_
*64 _027_
*65 _028_
*66 _029_
*67 _030_
*68 _031_
*69 _032_
*70 _033_
*71 _034_
*72 _035_
*73 _036_
*74 _037_
*75 _038_
*76 _039_
*77 _040_
*78 _041_
*79 _042_
*80 _043_
*81 _044_
*82 _045_
*83 _046_
*84 _047_
*85 _048_
*86 _049_
*87 _050_
*88 _051_
*89 _052_
*90 _053_
*91 _054_
*92 _055_
*93 _056_
*94 _057_
*95 _058_
*96 _059_
*97 _060_
*98 _061_
*99 _062_
*100 _063_
*101 _064_
*102 _065_
*103 _066_
*104 _067_
*105 _068_
*106 _069_
*107 _070_
*108 _071_
*109 _072_
*110 _073_
*111 _074_
*112 _075_
*113 _076_
*114 _077_
*115 _078_
*116 _079_
*117 _080_
*118 _081_
*119 _082_
*120 _083_
*121 _084_
*122 _085_
*123 _086_
*124 _087_
*125 _088_
*126 _089_
*127 _090_
*128 _091_
*129 _092_
*130 _093_
*131 _094_
*132 _095_
*133 _096_
*134 _097_
*135 _098_
*136 _099_
*137 _100_
*138 _101_
*139 _102_
*140 _103_
*141 _104_
*142 _105_
*143 _106_
*144 _107_
*145 _108_
*146 _109_
*147 _110_
*148 _111_
*149 _112_
*150 _113_
*151 _114_
*152 _115_
*153 _116_
*154 _117_
*155 _118_
*156 _119_
*157 _120_
*158 _121_
*159 _122_
*160 _123_
*161 _124_
*162 _125_
*163 _126_
*164 _127_
*165 _128_
*166 _129_
*167 _130_
*168 _131_
*169 _132_
*170 _133_
*171 _134_
*172 _135_
*173 _136_
*174 _137_
*175 _138_
*176 _139_
*177 _140_
*178 _141_
*179 _142_
*180 _143_
*181 _144_
*182 _145_
*183 _146_
*184 _147_
*185 _148_
*186 _149_
*187 _150_
*188 _151_
*189 _152_
*190 _153_
*191 _154_
*192 _155_
*193 _156_
*194 _157_
*195 _158_
*196 _159_
*197 _160_
*198 _161_
*199 _162_
*200 _163_
*201 _164_
*202 _165_
*203 _166_
*204 _167_
*205 _168_
*206 _169_
*207 _170_
*208 _171_
*209 _172_
*210 _173_
*211 _174_
*212 _175_
*213 _176_
*214 _177_
*215 _178_
*216 _179_
*217 _180_
*218 _181_
*219 _182_
*220 _183_
*221 _184_
*222 _185_
*223 _186_
*224 _187_
*225 _188_
*226 _189_
*227 _190_
*228 _191_
*229 _192_
*230 _193_
*231 _194_
*232 _195_
*233 _196_
*234 _197_
*235 _198_
*236 _199_
*237 _200_
*238 _201_
*239 _202_
*240 _203_
*241 _204_
*242 _205_
*243 _206_
*244 _207_
*245 _208_
*246 _209_
*247 _210_
*248 _211_
*249 _212_
*250 _213_
*251 _214_
*252 _215_
*253 _216_
*254 _217_
*255 _218_
*256 _219_
*257 _220_
*258 _221_
*259 _222_
*260 _223_
*261 _224_
*262 _225_
*263 _226_
*264 _227_
*265 _228_
*266 _229_
*267 _230_
*268 _231_
*269 _232_
*270 _233_
*271 _234_
*272 _235_
*273 _236_
*274 _237_
*275 _238_
*276 _239_
*277 _240_
*278 _241_
*279 _242_
*280 _243_
*281 _244_
*282 _245_
*283 _246_
*284 _247_
*285 _248_
*286 _249_
*287 _250_
*288 _251_
*289 _252_
*290 _253_
*291 _254_
*292 _255_
*293 _256_
*294 _257_
*295 _258_
*296 _259_
*297 _260_
*298 _261_
*299 _262_
*300 _263_
*301 _264_
*302 _265_
*303 _266_
*304 _267_
*305 _268_
*306 _269_
*307 _270_
*308 _271_
*309 _272_
*310 _273_
*311 _274_
*312 _275_
*313 _276_
*314 _277_
*315 _278_
*316 _279_
*317 _280_
*318 _281_
*319 _282_
*320 _283_
*321 _284_
*322 _285_
*323 _286_
*324 _287_
*325 _288_
*326 _289_
*327 _290_
*328 _291_
*329 _292_
*330 _293_
*331 _294_
*332 _295_
*333 _296_
*334 _297_
*335 _298_
*336 _299_
*337 _300_
*338 _301_
*339 _302_
*340 _303_
*341 _304_
*342 _305_
*343 _306_
*344 _307_
*345 _308_
*346 _309_
*347 _310_
*348 _311_
*349 _312_
*350 _313_
*351 _314_
*352 _315_
*353 _316_
*354 _317_
*355 _318_
*356 _319_
*357 _320_
*358 _321_
*359 _322_
*360 _323_
*361 _324_
*362 _325_
*363 _326_
*364 _327_
*365 _328_
*366 _329_
*367 _330_
*368 _331_
*369 _332_
*370 _333_
*371 _334_
*372 _335_
*373 _336_
*374 _337_
*375 _338_
*376 _339_
*377 _340_
*378 _341_
*379 _342_
*380 _343_
*381 _344_
*382 _345_
*383 _346_
*384 _347_
*385 _348_
*386 _349_
*387 _350_
*388 _351_
*389 _352_
*390 _353_
*391 _354_
*392 _355_
*393 _356_
*394 _357_
*395 _358_
*396 _359_
*397 _360_
*398 _361_
*399 _362_
*400 _363_
*401 _364_
*402 _365_
*403 _366_
*404 _367_
*405 _368_
*406 _369_
*407 _370_
*408 _371_
*409 _372_
*410 _373_
*411 _374_
*412 _375_
*413 _376_
*414 a_high\[0\]
*415 a_high\[1\]
*416 a_high\[2\]
*417 a_high\[3\]
*418 a_low\[0\]
*419 a_low\[1\]
*420 a_low\[2\]
*421 a_low\[3\]
*422 b_high\[0\]
*423 b_high\[1\]
*424 b_high\[2\]
*425 b_high\[3\]
*426 b_low\[0\]
*427 b_low\[1\]
*428 b_low\[2\]
*429 b_low\[3\]
*430 clknet_0_clk
*431 clknet_3_0__leaf_clk
*432 clknet_3_1__leaf_clk
*433 clknet_3_2__leaf_clk
*434 clknet_3_3__leaf_clk
*435 clknet_3_4__leaf_clk
*436 clknet_3_5__leaf_clk
*437 clknet_3_6__leaf_clk
*438 clknet_3_7__leaf_clk
*439 net1
*440 net10
*441 net11
*442 net12
*443 net13
*444 net14
*445 net15
*446 net16
*447 net17
*448 net18
*449 net19
*450 net2
*451 net20
*452 net21
*453 net22
*454 net23
*455 net24
*456 net25
*457 net26
*458 net27
*459 net28
*460 net29
*461 net3
*462 net30
*463 net31
*464 net32
*465 net33
*466 net34
*467 net35
*468 net36
*469 net37
*470 net38
*471 net39
*472 net4
*473 net40
*474 net41
*475 net42
*476 net43
*477 net44
*478 net45
*479 net46
*480 net47
*481 net48
*482 net49
*483 net5
*484 net50
*485 net51
*486 net52
*487 net53
*488 net54
*489 net55
*490 net56
*491 net57
*492 net58
*493 net59
*494 net6
*495 net60
*496 net61
*497 net62
*498 net63
*499 net64
*500 net65
*501 net66
*502 net67
*503 net68
*504 net69
*505 net7
*506 net8
*507 net9
*508 pp0\[0\]
*509 pp0\[1\]
*510 pp0\[2\]
*511 pp0\[3\]
*512 pp0\[4\]
*513 pp0\[5\]
*514 pp0\[6\]
*515 pp0\[7\]
*516 pp1\[0\]
*517 pp1\[1\]
*518 pp1\[2\]
*519 pp1\[3\]
*520 pp1\[4\]
*521 pp1\[5\]
*522 pp1\[6\]
*523 pp1\[7\]
*524 pp2\[0\]
*525 pp2\[1\]
*526 pp2\[2\]
*527 pp2\[3\]
*528 pp2\[4\]
*529 pp2\[5\]
*530 pp2\[6\]
*531 pp2\[7\]
*532 pp3\[0\]
*533 pp3\[1\]
*534 pp3\[2\]
*535 pp3\[3\]
*536 pp3\[4\]
*537 pp3\[5\]
*538 pp3\[6\]
*539 pp3\[7\]
*540 FILLER_0_101
*541 FILLER_0_109
*542 FILLER_0_113
*543 FILLER_0_125
*544 FILLER_0_134
*545 FILLER_0_141
*546 FILLER_0_147
*547 FILLER_0_15
*548 FILLER_0_152
*549 FILLER_0_169
*550 FILLER_0_181
*551 FILLER_0_193
*552 FILLER_0_197
*553 FILLER_0_209
*554 FILLER_0_23
*555 FILLER_0_29
*556 FILLER_0_3
*557 FILLER_0_53
*558 FILLER_0_57
*559 FILLER_0_63
*560 FILLER_0_93
*561 FILLER_10_102
*562 FILLER_10_134
*563 FILLER_10_155
*564 FILLER_10_167
*565 FILLER_10_17
*566 FILLER_10_190
*567 FILLER_10_197
*568 FILLER_10_209
*569 FILLER_10_25
*570 FILLER_10_29
*571 FILLER_10_41
*572 FILLER_10_53
*573 FILLER_10_65
*574 FILLER_10_69
*575 FILLER_10_81
*576 FILLER_10_9
*577 FILLER_10_95
*578 FILLER_11_103
*579 FILLER_11_111
*580 FILLER_11_113
*581 FILLER_11_121
*582 FILLER_11_132
*583 FILLER_11_144
*584 FILLER_11_156
*585 FILLER_11_189
*586 FILLER_11_201
*587 FILLER_11_209
*588 FILLER_11_23
*589 FILLER_11_35
*590 FILLER_11_47
*591 FILLER_11_55
*592 FILLER_11_60
*593 FILLER_11_72
*594 FILLER_11_80
*595 FILLER_11_85
*596 FILLER_11_91
*597 FILLER_12_121
*598 FILLER_12_139
*599 FILLER_12_15
*600 FILLER_12_168
*601 FILLER_12_179
*602 FILLER_12_189
*603 FILLER_12_195
*604 FILLER_12_197
*605 FILLER_12_206
*606 FILLER_12_210
*607 FILLER_12_3
*608 FILLER_12_34
*609 FILLER_12_68
*610 FILLER_12_76
*611 FILLER_13_106
*612 FILLER_13_113
*613 FILLER_13_125
*614 FILLER_13_130
*615 FILLER_13_153
*616 FILLER_13_167
*617 FILLER_13_169
*618 FILLER_13_190
*619 FILLER_13_3
*620 FILLER_13_42
*621 FILLER_13_48
*622 FILLER_13_70
*623 FILLER_13_82
*624 FILLER_13_88
*625 FILLER_13_94
*626 FILLER_14_107
*627 FILLER_14_115
*628 FILLER_14_15
*629 FILLER_14_174
*630 FILLER_14_186
*631 FILLER_14_194
*632 FILLER_14_197
*633 FILLER_14_205
*634 FILLER_14_26
*635 FILLER_14_3
*636 FILLER_14_33
*637 FILLER_14_38
*638 FILLER_14_50
*639 FILLER_14_56
*640 FILLER_14_67
*641 FILLER_14_73
*642 FILLER_14_85
*643 FILLER_14_91
*644 FILLER_14_95
*645 FILLER_15_106
*646 FILLER_15_113
*647 FILLER_15_137
*648 FILLER_15_149
*649 FILLER_15_15
*650 FILLER_15_154
*651 FILLER_15_163
*652 FILLER_15_167
*653 FILLER_15_169
*654 FILLER_15_181
*655 FILLER_15_193
*656 FILLER_15_205
*657 FILLER_15_25
*658 FILLER_15_3
*659 FILLER_15_35
*660 FILLER_15_47
*661 FILLER_15_55
*662 FILLER_15_57
*663 FILLER_15_79
*664 FILLER_15_94
*665 FILLER_16_106
*666 FILLER_16_131
*667 FILLER_16_139
*668 FILLER_16_161
*669 FILLER_16_173
*670 FILLER_16_185
*671 FILLER_16_193
*672 FILLER_16_197
*673 FILLER_16_205
*674 FILLER_16_3
*675 FILLER_16_32
*676 FILLER_16_41
*677 FILLER_16_53
*678 FILLER_16_67
*679 FILLER_16_79
*680 FILLER_16_83
*681 FILLER_16_85
*682 FILLER_17_110
*683 FILLER_17_119
*684 FILLER_17_131
*685 FILLER_17_138
*686 FILLER_17_15
*687 FILLER_17_150
*688 FILLER_17_162
*689 FILLER_17_172
*690 FILLER_17_184
*691 FILLER_17_190
*692 FILLER_17_3
*693 FILLER_17_44
*694 FILLER_17_50
*695 FILLER_17_64
*696 FILLER_17_76
*697 FILLER_17_88
*698 FILLER_18_118
*699 FILLER_18_147
*700 FILLER_18_15
*701 FILLER_18_153
*702 FILLER_18_176
*703 FILLER_18_188
*704 FILLER_18_197
*705 FILLER_18_210
*706 FILLER_18_27
*707 FILLER_18_29
*708 FILLER_18_3
*709 FILLER_18_40
*710 FILLER_18_48
*711 FILLER_18_63
*712 FILLER_18_75
*713 FILLER_18_82
*714 FILLER_18_92
*715 FILLER_19_103
*716 FILLER_19_111
*717 FILLER_19_143
*718 FILLER_19_15
*719 FILLER_19_160
*720 FILLER_19_169
*721 FILLER_19_178
*722 FILLER_19_187
*723 FILLER_19_199
*724 FILLER_19_27
*725 FILLER_19_3
*726 FILLER_19_39
*727 FILLER_19_51
*728 FILLER_19_55
*729 FILLER_19_57
*730 FILLER_19_69
*731 FILLER_19_91
*732 FILLER_1_116
*733 FILLER_1_15
*734 FILLER_1_160
*735 FILLER_1_169
*736 FILLER_1_181
*737 FILLER_1_193
*738 FILLER_1_205
*739 FILLER_1_3
*740 FILLER_1_50
*741 FILLER_1_55
*742 FILLER_1_57
*743 FILLER_1_70
*744 FILLER_20_108
*745 FILLER_20_120
*746 FILLER_20_132
*747 FILLER_20_15
*748 FILLER_20_155
*749 FILLER_20_164
*750 FILLER_20_192
*751 FILLER_20_197
*752 FILLER_20_206
*753 FILLER_20_27
*754 FILLER_20_29
*755 FILLER_20_3
*756 FILLER_20_46
*757 FILLER_20_52
*758 FILLER_20_63
*759 FILLER_20_69
*760 FILLER_20_85
*761 FILLER_20_92
*762 FILLER_21_106
*763 FILLER_21_113
*764 FILLER_21_117
*765 FILLER_21_138
*766 FILLER_21_15
*767 FILLER_21_167
*768 FILLER_21_169
*769 FILLER_21_173
*770 FILLER_21_190
*771 FILLER_21_27
*772 FILLER_21_3
*773 FILLER_21_52
*774 FILLER_21_72
*775 FILLER_21_80
*776 FILLER_21_88
*777 FILLER_21_96
*778 FILLER_22_101
*779 FILLER_22_109
*780 FILLER_22_11
*781 FILLER_22_133
*782 FILLER_22_139
*783 FILLER_22_16
*784 FILLER_22_165
*785 FILLER_22_174
*786 FILLER_22_182
*787 FILLER_22_194
*788 FILLER_22_197
*789 FILLER_22_209
*790 FILLER_22_29
*791 FILLER_22_3
*792 FILLER_22_33
*793 FILLER_22_52
*794 FILLER_22_58
*795 FILLER_22_68
*796 FILLER_22_80
*797 FILLER_23_104
*798 FILLER_23_108
*799 FILLER_23_113
*800 FILLER_23_125
*801 FILLER_23_133
*802 FILLER_23_142
*803 FILLER_23_149
*804 FILLER_23_162
*805 FILLER_23_166
*806 FILLER_23_169
*807 FILLER_23_181
*808 FILLER_23_193
*809 FILLER_23_205
*810 FILLER_23_23
*811 FILLER_23_35
*812 FILLER_23_48
*813 FILLER_23_77
*814 FILLER_23_92
*815 FILLER_24_129
*816 FILLER_24_138
*817 FILLER_24_151
*818 FILLER_24_172
*819 FILLER_24_184
*820 FILLER_24_197
*821 FILLER_24_206
*822 FILLER_24_210
*823 FILLER_24_32
*824 FILLER_24_40
*825 FILLER_24_47
*826 FILLER_24_59
*827 FILLER_24_6
*828 FILLER_24_68
*829 FILLER_24_82
*830 FILLER_24_85
*831 FILLER_25_106
*832 FILLER_25_113
*833 FILLER_25_140
*834 FILLER_25_150
*835 FILLER_25_161
*836 FILLER_25_167
*837 FILLER_25_169
*838 FILLER_25_184
*839 FILLER_25_190
*840 FILLER_25_23
*841 FILLER_25_35
*842 FILLER_25_47
*843 FILLER_25_55
*844 FILLER_25_57
*845 FILLER_25_80
*846 FILLER_25_94
*847 FILLER_26_103
*848 FILLER_26_115
*849 FILLER_26_119
*850 FILLER_26_123
*851 FILLER_26_168
*852 FILLER_26_184
*853 FILLER_26_19
*854 FILLER_26_197
*855 FILLER_26_204
*856 FILLER_26_27
*857 FILLER_26_29
*858 FILLER_26_41
*859 FILLER_26_53
*860 FILLER_26_59
*861 FILLER_26_71
*862 FILLER_26_83
*863 FILLER_26_85
*864 FILLER_26_9
*865 FILLER_26_94
*866 FILLER_27_105
*867 FILLER_27_111
*868 FILLER_27_120
*869 FILLER_27_128
*870 FILLER_27_135
*871 FILLER_27_143
*872 FILLER_27_152
*873 FILLER_27_164
*874 FILLER_27_182
*875 FILLER_27_210
*876 FILLER_27_23
*877 FILLER_27_35
*878 FILLER_27_43
*879 FILLER_27_55
*880 FILLER_27_76
*881 FILLER_27_90
*882 FILLER_27_98
*883 FILLER_28_115
*884 FILLER_28_139
*885 FILLER_28_141
*886 FILLER_28_153
*887 FILLER_28_170
*888 FILLER_28_182
*889 FILLER_28_194
*890 FILLER_28_197
*891 FILLER_28_205
*892 FILLER_28_32
*893 FILLER_28_6
*894 FILLER_29_10
*895 FILLER_29_110
*896 FILLER_29_119
*897 FILLER_29_131
*898 FILLER_29_14
*899 FILLER_29_157
*900 FILLER_29_176
*901 FILLER_29_188
*902 FILLER_29_26
*903 FILLER_29_38
*904 FILLER_29_44
*905 FILLER_29_52
*906 FILLER_29_6
*907 FILLER_29_78
*908 FILLER_29_84
*909 FILLER_29_92
*910 FILLER_2_106
*911 FILLER_2_114
*912 FILLER_2_149
*913 FILLER_2_15
*914 FILLER_2_156
*915 FILLER_2_168
*916 FILLER_2_180
*917 FILLER_2_192
*918 FILLER_2_197
*919 FILLER_2_205
*920 FILLER_2_27
*921 FILLER_2_29
*922 FILLER_2_3
*923 FILLER_2_81
*924 FILLER_2_85
*925 FILLER_30_100
*926 FILLER_30_106
*927 FILLER_30_118
*928 FILLER_30_126
*929 FILLER_30_132
*930 FILLER_30_141
*931 FILLER_30_151
*932 FILLER_30_163
*933 FILLER_30_170
*934 FILLER_30_182
*935 FILLER_30_194
*936 FILLER_30_197
*937 FILLER_30_206
*938 FILLER_30_210
*939 FILLER_30_23
*940 FILLER_30_27
*941 FILLER_30_29
*942 FILLER_30_54
*943 FILLER_30_60
*944 FILLER_30_71
*945 FILLER_30_79
*946 FILLER_30_83
*947 FILLER_30_88
*948 FILLER_31_105
*949 FILLER_31_111
*950 FILLER_31_113
*951 FILLER_31_139
*952 FILLER_31_14
*953 FILLER_31_145
*954 FILLER_31_149
*955 FILLER_31_161
*956 FILLER_31_167
*957 FILLER_31_169
*958 FILLER_31_181
*959 FILLER_31_193
*960 FILLER_31_205
*961 FILLER_31_39
*962 FILLER_31_43
*963 FILLER_31_51
*964 FILLER_31_55
*965 FILLER_31_57
*966 FILLER_31_6
*967 FILLER_31_69
*968 FILLER_31_75
*969 FILLER_31_87
*970 FILLER_31_93
*971 FILLER_32_108
*972 FILLER_32_120
*973 FILLER_32_128
*974 FILLER_32_134
*975 FILLER_32_139
*976 FILLER_32_147
*977 FILLER_32_167
*978 FILLER_32_18
*979 FILLER_32_189
*980 FILLER_32_195
*981 FILLER_32_197
*982 FILLER_32_209
*983 FILLER_32_26
*984 FILLER_32_29
*985 FILLER_32_41
*986 FILLER_32_6
*987 FILLER_32_66
*988 FILLER_32_78
*989 FILLER_32_85
*990 FILLER_32_97
*991 FILLER_33_104
*992 FILLER_33_15
*993 FILLER_33_192
*994 FILLER_33_204
*995 FILLER_33_210
*996 FILLER_33_27
*997 FILLER_33_3
*998 FILLER_33_35
*999 FILLER_33_41
*1000 FILLER_33_75
*1001 FILLER_34_15
*1002 FILLER_34_169
*1003 FILLER_34_175
*1004 FILLER_34_179
*1005 FILLER_34_191
*1006 FILLER_34_195
*1007 FILLER_34_197
*1008 FILLER_34_209
*1009 FILLER_34_27
*1010 FILLER_34_3
*1011 FILLER_34_49
*1012 FILLER_34_57
*1013 FILLER_34_64
*1014 FILLER_34_72
*1015 FILLER_34_78
*1016 FILLER_34_85
*1017 FILLER_35_109
*1018 FILLER_35_113
*1019 FILLER_35_125
*1020 FILLER_35_137
*1021 FILLER_35_141
*1022 FILLER_35_15
*1023 FILLER_35_153
*1024 FILLER_35_165
*1025 FILLER_35_169
*1026 FILLER_35_175
*1027 FILLER_35_183
*1028 FILLER_35_189
*1029 FILLER_35_197
*1030 FILLER_35_209
*1031 FILLER_35_27
*1032 FILLER_35_29
*1033 FILLER_35_3
*1034 FILLER_35_34
*1035 FILLER_35_46
*1036 FILLER_35_54
*1037 FILLER_35_57
*1038 FILLER_35_69
*1039 FILLER_35_81
*1040 FILLER_35_85
*1041 FILLER_35_97
*1042 FILLER_3_100
*1043 FILLER_3_11
*1044 FILLER_3_111
*1045 FILLER_3_116
*1046 FILLER_3_128
*1047 FILLER_3_140
*1048 FILLER_3_15
*1049 FILLER_3_152
*1050 FILLER_3_164
*1051 FILLER_3_169
*1052 FILLER_3_181
*1053 FILLER_3_193
*1054 FILLER_3_205
*1055 FILLER_3_27
*1056 FILLER_3_3
*1057 FILLER_3_35
*1058 FILLER_3_41
*1059 FILLER_3_45
*1060 FILLER_3_55
*1061 FILLER_3_65
*1062 FILLER_3_76
*1063 FILLER_3_88
*1064 FILLER_4_103
*1065 FILLER_4_115
*1066 FILLER_4_119
*1067 FILLER_4_141
*1068 FILLER_4_153
*1069 FILLER_4_165
*1070 FILLER_4_177
*1071 FILLER_4_189
*1072 FILLER_4_195
*1073 FILLER_4_197
*1074 FILLER_4_209
*1075 FILLER_4_23
*1076 FILLER_4_27
*1077 FILLER_4_29
*1078 FILLER_4_41
*1079 FILLER_4_53
*1080 FILLER_4_57
*1081 FILLER_4_67
*1082 FILLER_4_78
*1083 FILLER_4_85
*1084 FILLER_4_89
*1085 FILLER_4_95
*1086 FILLER_5_104
*1087 FILLER_5_111
*1088 FILLER_5_120
*1089 FILLER_5_128
*1090 FILLER_5_153
*1091 FILLER_5_165
*1092 FILLER_5_169
*1093 FILLER_5_195
*1094 FILLER_5_35
*1095 FILLER_5_39
*1096 FILLER_5_44
*1097 FILLER_5_57
*1098 FILLER_5_6
*1099 FILLER_5_70
*1100 FILLER_5_80
*1101 FILLER_5_90
*1102 FILLER_5_97
*1103 FILLER_6_104
*1104 FILLER_6_123
*1105 FILLER_6_135
*1106 FILLER_6_139
*1107 FILLER_6_144
*1108 FILLER_6_15
*1109 FILLER_6_152
*1110 FILLER_6_172
*1111 FILLER_6_184
*1112 FILLER_6_197
*1113 FILLER_6_201
*1114 FILLER_6_27
*1115 FILLER_6_29
*1116 FILLER_6_72
*1117 FILLER_6_81
*1118 FILLER_6_9
*1119 FILLER_7_107
*1120 FILLER_7_111
*1121 FILLER_7_113
*1122 FILLER_7_121
*1123 FILLER_7_127
*1124 FILLER_7_151
*1125 FILLER_7_169
*1126 FILLER_7_181
*1127 FILLER_7_189
*1128 FILLER_7_210
*1129 FILLER_7_23
*1130 FILLER_7_29
*1131 FILLER_7_57
*1132 FILLER_7_91
*1133 FILLER_8_107
*1134 FILLER_8_113
*1135 FILLER_8_134
*1136 FILLER_8_141
*1137 FILLER_8_149
*1138 FILLER_8_154
*1139 FILLER_8_175
*1140 FILLER_8_187
*1141 FILLER_8_195
*1142 FILLER_8_197
*1143 FILLER_8_32
*1144 FILLER_8_55
*1145 FILLER_8_6
*1146 FILLER_8_95
*1147 FILLER_9_101
*1148 FILLER_9_109
*1149 FILLER_9_133
*1150 FILLER_9_141
*1151 FILLER_9_153
*1152 FILLER_9_165
*1153 FILLER_9_172
*1154 FILLER_9_176
*1155 FILLER_9_189
*1156 FILLER_9_23
*1157 FILLER_9_35
*1158 FILLER_9_51
*1159 FILLER_9_55
*1160 PHY_EDGE_ROW_0_Left_36
*1161 PHY_EDGE_ROW_0_Right_0
*1162 PHY_EDGE_ROW_10_Left_46
*1163 PHY_EDGE_ROW_10_Right_10
*1164 PHY_EDGE_ROW_11_Left_47
*1165 PHY_EDGE_ROW_11_Right_11
*1166 PHY_EDGE_ROW_12_Left_48
*1167 PHY_EDGE_ROW_12_Right_12
*1168 PHY_EDGE_ROW_13_Left_49
*1169 PHY_EDGE_ROW_13_Right_13
*1170 PHY_EDGE_ROW_14_Left_50
*1171 PHY_EDGE_ROW_14_Right_14
*1172 PHY_EDGE_ROW_15_Left_51
*1173 PHY_EDGE_ROW_15_Right_15
*1174 PHY_EDGE_ROW_16_Left_52
*1175 PHY_EDGE_ROW_16_Right_16
*1176 PHY_EDGE_ROW_17_Left_53
*1177 PHY_EDGE_ROW_17_Right_17
*1178 PHY_EDGE_ROW_18_Left_54
*1179 PHY_EDGE_ROW_18_Right_18
*1180 PHY_EDGE_ROW_19_Left_55
*1181 PHY_EDGE_ROW_19_Right_19
*1182 PHY_EDGE_ROW_1_Left_37
*1183 PHY_EDGE_ROW_1_Right_1
*1184 PHY_EDGE_ROW_20_Left_56
*1185 PHY_EDGE_ROW_20_Right_20
*1186 PHY_EDGE_ROW_21_Left_57
*1187 PHY_EDGE_ROW_21_Right_21
*1188 PHY_EDGE_ROW_22_Left_58
*1189 PHY_EDGE_ROW_22_Right_22
*1190 PHY_EDGE_ROW_23_Left_59
*1191 PHY_EDGE_ROW_23_Right_23
*1192 PHY_EDGE_ROW_24_Left_60
*1193 PHY_EDGE_ROW_24_Right_24
*1194 PHY_EDGE_ROW_25_Left_61
*1195 PHY_EDGE_ROW_25_Right_25
*1196 PHY_EDGE_ROW_26_Left_62
*1197 PHY_EDGE_ROW_26_Right_26
*1198 PHY_EDGE_ROW_27_Left_63
*1199 PHY_EDGE_ROW_27_Right_27
*1200 PHY_EDGE_ROW_28_Left_64
*1201 PHY_EDGE_ROW_28_Right_28
*1202 PHY_EDGE_ROW_29_Left_65
*1203 PHY_EDGE_ROW_29_Right_29
*1204 PHY_EDGE_ROW_2_Left_38
*1205 PHY_EDGE_ROW_2_Right_2
*1206 PHY_EDGE_ROW_30_Left_66
*1207 PHY_EDGE_ROW_30_Right_30
*1208 PHY_EDGE_ROW_31_Left_67
*1209 PHY_EDGE_ROW_31_Right_31
*1210 PHY_EDGE_ROW_32_Left_68
*1211 PHY_EDGE_ROW_32_Right_32
*1212 PHY_EDGE_ROW_33_Left_69
*1213 PHY_EDGE_ROW_33_Right_33
*1214 PHY_EDGE_ROW_34_Left_70
*1215 PHY_EDGE_ROW_34_Right_34
*1216 PHY_EDGE_ROW_35_Left_71
*1217 PHY_EDGE_ROW_35_Right_35
*1218 PHY_EDGE_ROW_3_Left_39
*1219 PHY_EDGE_ROW_3_Right_3
*1220 PHY_EDGE_ROW_4_Left_40
*1221 PHY_EDGE_ROW_4_Right_4
*1222 PHY_EDGE_ROW_5_Left_41
*1223 PHY_EDGE_ROW_5_Right_5
*1224 PHY_EDGE_ROW_6_Left_42
*1225 PHY_EDGE_ROW_6_Right_6
*1226 PHY_EDGE_ROW_7_Left_43
*1227 PHY_EDGE_ROW_7_Right_7
*1228 PHY_EDGE_ROW_8_Left_44
*1229 PHY_EDGE_ROW_8_Right_8
*1230 PHY_EDGE_ROW_9_Left_45
*1231 PHY_EDGE_ROW_9_Right_9
*1232 TAP_TAPCELL_ROW_0_72
*1233 TAP_TAPCELL_ROW_0_73
*1234 TAP_TAPCELL_ROW_0_74
*1235 TAP_TAPCELL_ROW_0_75
*1236 TAP_TAPCELL_ROW_0_76
*1237 TAP_TAPCELL_ROW_0_77
*1238 TAP_TAPCELL_ROW_0_78
*1239 TAP_TAPCELL_ROW_10_110
*1240 TAP_TAPCELL_ROW_10_111
*1241 TAP_TAPCELL_ROW_10_112
*1242 TAP_TAPCELL_ROW_10_113
*1243 TAP_TAPCELL_ROW_11_114
*1244 TAP_TAPCELL_ROW_11_115
*1245 TAP_TAPCELL_ROW_11_116
*1246 TAP_TAPCELL_ROW_12_117
*1247 TAP_TAPCELL_ROW_12_118
*1248 TAP_TAPCELL_ROW_12_119
*1249 TAP_TAPCELL_ROW_12_120
*1250 TAP_TAPCELL_ROW_13_121
*1251 TAP_TAPCELL_ROW_13_122
*1252 TAP_TAPCELL_ROW_13_123
*1253 TAP_TAPCELL_ROW_14_124
*1254 TAP_TAPCELL_ROW_14_125
*1255 TAP_TAPCELL_ROW_14_126
*1256 TAP_TAPCELL_ROW_14_127
*1257 TAP_TAPCELL_ROW_15_128
*1258 TAP_TAPCELL_ROW_15_129
*1259 TAP_TAPCELL_ROW_15_130
*1260 TAP_TAPCELL_ROW_16_131
*1261 TAP_TAPCELL_ROW_16_132
*1262 TAP_TAPCELL_ROW_16_133
*1263 TAP_TAPCELL_ROW_16_134
*1264 TAP_TAPCELL_ROW_17_135
*1265 TAP_TAPCELL_ROW_17_136
*1266 TAP_TAPCELL_ROW_17_137
*1267 TAP_TAPCELL_ROW_18_138
*1268 TAP_TAPCELL_ROW_18_139
*1269 TAP_TAPCELL_ROW_18_140
*1270 TAP_TAPCELL_ROW_18_141
*1271 TAP_TAPCELL_ROW_19_142
*1272 TAP_TAPCELL_ROW_19_143
*1273 TAP_TAPCELL_ROW_19_144
*1274 TAP_TAPCELL_ROW_1_79
*1275 TAP_TAPCELL_ROW_1_80
*1276 TAP_TAPCELL_ROW_1_81
*1277 TAP_TAPCELL_ROW_20_145
*1278 TAP_TAPCELL_ROW_20_146
*1279 TAP_TAPCELL_ROW_20_147
*1280 TAP_TAPCELL_ROW_20_148
*1281 TAP_TAPCELL_ROW_21_149
*1282 TAP_TAPCELL_ROW_21_150
*1283 TAP_TAPCELL_ROW_21_151
*1284 TAP_TAPCELL_ROW_22_152
*1285 TAP_TAPCELL_ROW_22_153
*1286 TAP_TAPCELL_ROW_22_154
*1287 TAP_TAPCELL_ROW_22_155
*1288 TAP_TAPCELL_ROW_23_156
*1289 TAP_TAPCELL_ROW_23_157
*1290 TAP_TAPCELL_ROW_23_158
*1291 TAP_TAPCELL_ROW_24_159
*1292 TAP_TAPCELL_ROW_24_160
*1293 TAP_TAPCELL_ROW_24_161
*1294 TAP_TAPCELL_ROW_24_162
*1295 TAP_TAPCELL_ROW_25_163
*1296 TAP_TAPCELL_ROW_25_164
*1297 TAP_TAPCELL_ROW_25_165
*1298 TAP_TAPCELL_ROW_26_166
*1299 TAP_TAPCELL_ROW_26_167
*1300 TAP_TAPCELL_ROW_26_168
*1301 TAP_TAPCELL_ROW_26_169
*1302 TAP_TAPCELL_ROW_27_170
*1303 TAP_TAPCELL_ROW_27_171
*1304 TAP_TAPCELL_ROW_27_172
*1305 TAP_TAPCELL_ROW_28_173
*1306 TAP_TAPCELL_ROW_28_174
*1307 TAP_TAPCELL_ROW_28_175
*1308 TAP_TAPCELL_ROW_28_176
*1309 TAP_TAPCELL_ROW_29_177
*1310 TAP_TAPCELL_ROW_29_178
*1311 TAP_TAPCELL_ROW_29_179
*1312 TAP_TAPCELL_ROW_2_82
*1313 TAP_TAPCELL_ROW_2_83
*1314 TAP_TAPCELL_ROW_2_84
*1315 TAP_TAPCELL_ROW_2_85
*1316 TAP_TAPCELL_ROW_30_180
*1317 TAP_TAPCELL_ROW_30_181
*1318 TAP_TAPCELL_ROW_30_182
*1319 TAP_TAPCELL_ROW_30_183
*1320 TAP_TAPCELL_ROW_31_184
*1321 TAP_TAPCELL_ROW_31_185
*1322 TAP_TAPCELL_ROW_31_186
*1323 TAP_TAPCELL_ROW_32_187
*1324 TAP_TAPCELL_ROW_32_188
*1325 TAP_TAPCELL_ROW_32_189
*1326 TAP_TAPCELL_ROW_32_190
*1327 TAP_TAPCELL_ROW_33_191
*1328 TAP_TAPCELL_ROW_33_192
*1329 TAP_TAPCELL_ROW_33_193
*1330 TAP_TAPCELL_ROW_34_194
*1331 TAP_TAPCELL_ROW_34_195
*1332 TAP_TAPCELL_ROW_34_196
*1333 TAP_TAPCELL_ROW_34_197
*1334 TAP_TAPCELL_ROW_35_198
*1335 TAP_TAPCELL_ROW_35_199
*1336 TAP_TAPCELL_ROW_35_200
*1337 TAP_TAPCELL_ROW_35_201
*1338 TAP_TAPCELL_ROW_35_202
*1339 TAP_TAPCELL_ROW_35_203
*1340 TAP_TAPCELL_ROW_35_204
*1341 TAP_TAPCELL_ROW_3_86
*1342 TAP_TAPCELL_ROW_3_87
*1343 TAP_TAPCELL_ROW_3_88
*1344 TAP_TAPCELL_ROW_4_89
*1345 TAP_TAPCELL_ROW_4_90
*1346 TAP_TAPCELL_ROW_4_91
*1347 TAP_TAPCELL_ROW_4_92
*1348 TAP_TAPCELL_ROW_5_93
*1349 TAP_TAPCELL_ROW_5_94
*1350 TAP_TAPCELL_ROW_5_95
*1351 TAP_TAPCELL_ROW_6_96
*1352 TAP_TAPCELL_ROW_6_97
*1353 TAP_TAPCELL_ROW_6_98
*1354 TAP_TAPCELL_ROW_6_99
*1355 TAP_TAPCELL_ROW_7_100
*1356 TAP_TAPCELL_ROW_7_101
*1357 TAP_TAPCELL_ROW_7_102
*1358 TAP_TAPCELL_ROW_8_103
*1359 TAP_TAPCELL_ROW_8_104
*1360 TAP_TAPCELL_ROW_8_105
*1361 TAP_TAPCELL_ROW_8_106
*1362 TAP_TAPCELL_ROW_9_107
*1363 TAP_TAPCELL_ROW_9_108
*1364 TAP_TAPCELL_ROW_9_109
*1365 _377_
*1366 _378_
*1367 _379_
*1368 _380_
*1369 _381_
*1370 _382_
*1371 _383_
*1372 _384_
*1373 _385_
*1374 _386_
*1375 _387_
*1376 _388_
*1377 _389_
*1378 _390_
*1379 _391_
*1380 _392_
*1381 _393_
*1382 _394_
*1383 _395_
*1384 _396_
*1385 _397_
*1386 _398_
*1387 _399_
*1388 _400_
*1389 _401_
*1390 _402_
*1391 _403_
*1392 _404_
*1393 _405_
*1394 _406_
*1395 _407_
*1396 _408_
*1397 _409_
*1398 _410_
*1399 _411_
*1400 _412_
*1401 _413_
*1402 _414_
*1403 _415_
*1404 _416_
*1405 _417_
*1406 _418_
*1407 _419_
*1408 _420_
*1409 _421_
*1410 _422_
*1411 _423_
*1412 _424_
*1413 _425_
*1414 _426_
*1415 _427_
*1416 _428_
*1417 _429_
*1418 _430_
*1419 _431_
*1420 _432_
*1421 _433_
*1422 _434_
*1423 _435_
*1424 _436_
*1425 _437_
*1426 _438_
*1427 _439_
*1428 _440_
*1429 _441_
*1430 _442_
*1431 _443_
*1432 _444_
*1433 _445_
*1434 _446_
*1435 _447_
*1436 _448_
*1437 _449_
*1438 _450_
*1439 _451_
*1440 _452_
*1441 _453_
*1442 _454_
*1443 _455_
*1444 _456_
*1445 _457_
*1446 _458_
*1447 _459_
*1448 _460_
*1449 _461_
*1450 _462_
*1451 _463_
*1452 _464_
*1453 _465_
*1454 _466_
*1455 _467_
*1456 _468_
*1457 _469_
*1458 _470_
*1459 _471_
*1460 _472_
*1461 _473_
*1462 _474_
*1463 _475_
*1464 _476_
*1465 _477_
*1466 _478_
*1467 _479_
*1468 _480_
*1469 _481_
*1470 _482_
*1471 _483_
*1472 _484_
*1473 _485_
*1474 _486_
*1475 _487_
*1476 _488_
*1477 _489_
*1478 _490_
*1479 _491_
*1480 _492_
*1481 _493_
*1482 _494_
*1483 _495_
*1484 _496_
*1485 _497_
*1486 _498_
*1487 _499_
*1488 _500_
*1489 _501_
*1490 _502_
*1491 _503_
*1492 _504_
*1493 _505_
*1494 _506_
*1495 _507_
*1496 _508_
*1497 _509_
*1498 _510_
*1499 _511_
*1500 _512_
*1501 _513_
*1502 _514_
*1503 _515_
*1504 _516_
*1505 _517_
*1506 _518_
*1507 _519_
*1508 _520_
*1509 _521_
*1510 _522_
*1511 _523_
*1512 _524_
*1513 _525_
*1514 _526_
*1515 _527_
*1516 _528_
*1517 _529_
*1518 _530_
*1519 _531_
*1520 _532_
*1521 _533_
*1522 _534_
*1523 _535_
*1524 _536_
*1525 _537_
*1526 _538_
*1527 _539_
*1528 _540_
*1529 _541_
*1530 _542_
*1531 _543_
*1532 _544_
*1533 _545_
*1534 _546_
*1535 _547_
*1536 _548_
*1537 _549_
*1538 _550_
*1539 _551_
*1540 _552_
*1541 _553_
*1542 _554_
*1543 _555_
*1544 _556_
*1545 _557_
*1546 _558_
*1547 _559_
*1548 _560_
*1549 _561_
*1550 _562_
*1551 _563_
*1552 _564_
*1553 _565_
*1554 _566_
*1555 _567_
*1556 _568_
*1557 _569_
*1558 _570_
*1559 _571_
*1560 _572_
*1561 _573_
*1562 _574_
*1563 _575_
*1564 _576_
*1565 _577_
*1566 _578_
*1567 _579_
*1568 _580_
*1569 _581_
*1570 _582_
*1571 _583_
*1572 _584_
*1573 _585_
*1574 _586_
*1575 _587_
*1576 _588_
*1577 _589_
*1578 _590_
*1579 _591_
*1580 _592_
*1581 _593_
*1582 _594_
*1583 _595_
*1584 _596_
*1585 _597_
*1586 _598_
*1587 _599_
*1588 _600_
*1589 _601_
*1590 _602_
*1591 _603_
*1592 _604_
*1593 _605_
*1594 _606_
*1595 _607_
*1596 _608_
*1597 _609_
*1598 _610_
*1599 _611_
*1600 _612_
*1601 _613_
*1602 _614_
*1603 _615_
*1604 _616_
*1605 _617_
*1606 _618_
*1607 _619_
*1608 _620_
*1609 _621_
*1610 _622_
*1611 _623_
*1612 _624_
*1613 _625_
*1614 _626_
*1615 _627_
*1616 _628_
*1617 _629_
*1618 _630_
*1619 _631_
*1620 _632_
*1621 _633_
*1622 _634_
*1623 _635_
*1624 _636_
*1625 _637_
*1626 _638_
*1627 _639_
*1628 _640_
*1629 _641_
*1630 _642_
*1631 _643_
*1632 _644_
*1633 _645_
*1634 _646_
*1635 _647_
*1636 _648_
*1637 _649_
*1638 _650_
*1639 _651_
*1640 _652_
*1641 _653_
*1642 _654_
*1643 _655_
*1644 _656_
*1645 _657_
*1646 _658_
*1647 _659_
*1648 _660_
*1649 _661_
*1650 _662_
*1651 _663_
*1652 _664_
*1653 _665_
*1654 _666_
*1655 _667_
*1656 _668_
*1657 _669_
*1658 _670_
*1659 _671_
*1660 _672_
*1661 _673_
*1662 _674_
*1663 _675_
*1664 _676_
*1665 _677_
*1666 _678_
*1667 _679_
*1668 _680_
*1669 _681_
*1670 _682_
*1671 _683_
*1672 _684_
*1673 _685_
*1674 _686_
*1675 _687_
*1676 _688_
*1677 _689_
*1678 _690_
*1679 _691_
*1680 _692_
*1681 _693_
*1682 _694_
*1683 _695_
*1684 _696_
*1685 _697_
*1686 _698_
*1687 _699_
*1688 _700_
*1689 _701_
*1690 _702_
*1691 _703_
*1692 _704_
*1693 _705_
*1694 _706_
*1695 _707_
*1696 _708_
*1697 _709_
*1698 _710_
*1699 _711_
*1700 _712_
*1701 _713_
*1702 _714_
*1703 _715_
*1704 _716_
*1705 _717_
*1706 _718_
*1707 _719_
*1708 _720_
*1709 _721_
*1710 _722_
*1711 _723_
*1712 _724_
*1713 _725_
*1714 _726_
*1715 _727_
*1716 _728_
*1717 _729_
*1718 _730_
*1719 _731_
*1720 _732_
*1721 _733_
*1722 _734_
*1723 _735_
*1724 _736_
*1725 _737_
*1726 _738_
*1727 _739_
*1728 _740_
*1729 _741_
*1730 _742_
*1731 _743_
*1732 _744_
*1733 _745_
*1734 _746_
*1735 _747_
*1736 _748_
*1737 _749_
*1738 _750_
*1739 _751_
*1740 _752_
*1741 _753_
*1742 _754_
*1743 _755_
*1744 _756_
*1745 _757_
*1746 _758_
*1747 _759_
*1748 _760_
*1749 _761_
*1750 _762_
*1751 _763_
*1752 _764_
*1753 _765_
*1754 _766_
*1755 _767_
*1756 _768_
*1757 _769_
*1758 _770_
*1759 _771_
*1760 _772_
*1761 _773_
*1762 _774_
*1763 _775_
*1764 _776_
*1765 _777_
*1766 _778_
*1767 _779_
*1768 _780_
*1769 _781_
*1770 _782_
*1771 _783_
*1772 _784_
*1773 _785_
*1774 _786_
*1775 _787_
*1776 _788_
*1777 _789_
*1778 _790_
*1779 _791_
*1780 _792_
*1781 _793_
*1782 _794_
*1783 _795_
*1784 _796_
*1785 _797_
*1786 _798_
*1787 _799_
*1788 _800_
*1789 _801_
*1790 _802_
*1791 _803_
*1792 _804_
*1793 _805_
*1794 _806_
*1795 _807_
*1796 _808_
*1797 _809_
*1798 _810_
*1799 _811_
*1800 _812_
*1801 _813_
*1802 _814_
*1803 _815_
*1804 _816_
*1805 _817_
*1806 clkbuf_0_clk
*1807 clkbuf_3_0__f_clk
*1808 clkbuf_3_1__f_clk
*1809 clkbuf_3_2__f_clk
*1810 clkbuf_3_3__f_clk
*1811 clkbuf_3_4__f_clk
*1812 clkbuf_3_5__f_clk
*1813 clkbuf_3_6__f_clk
*1814 clkbuf_3_7__f_clk
*1815 clkload0
*1816 clkload1
*1817 clkload2
*1818 clkload3
*1819 clkload4
*1820 clkload5
*1821 clkload6
*1822 fanout34
*1823 fanout35
*1824 fanout36
*1825 fanout37
*1826 fanout38
*1827 fanout39
*1828 fanout40
*1829 fanout41
*1830 fanout42
*1831 fanout43
*1832 fanout44
*1833 fanout45
*1834 fanout46
*1835 fanout47
*1836 fanout48
*1837 fanout49
*1838 fanout50
*1839 fanout51
*1840 fanout52
*1841 fanout53
*1842 fanout54
*1843 fanout55
*1844 fanout56
*1845 fanout57
*1846 fanout58
*1847 fanout59
*1848 fanout60
*1849 fanout61
*1850 fanout62
*1851 hold1
*1852 hold2