* NGSPICE file created from mult.ext - technology: sky130A

* Black-box entry subcircuit for sky130_fd_sc_hd__fill_1 abstract view
.subckt sky130_fd_sc_hd__fill_1 VGND VNB VPB VPWR
.ends

* Black-box entry subcircuit for sky130_ef_sc_hd__decap_12 abstract view
.subckt sky130_ef_sc_hd__decap_12 VPWR VGND VPB VNB
.ends

* Black-box entry subcircuit for sky130_fd_sc_hd__decap_3 abstract view
.subckt sky130_fd_sc_hd__decap_3 VGND VNB VPB VPWR
.ends

* Black-box entry subcircuit for sky130_fd_sc_hd__decap_6 abstract view
.subckt sky130_fd_sc_hd__decap_6 VGND VNB VPB VPWR
.ends

* Black-box entry subcircuit for sky130_fd_sc_hd__tapvpwrvgnd_1 abstract view
.subckt sky130_fd_sc_hd__tapvpwrvgnd_1 VGND VPWR
.ends

* Black-box entry subcircuit for sky130_fd_sc_hd__decap_8 abstract view
.subckt sky130_fd_sc_hd__decap_8 VGND VNB VPB VPWR
.ends

* Black-box entry subcircuit for sky130_fd_sc_hd__decap_4 abstract view
.subckt sky130_fd_sc_hd__decap_4 VGND VNB VPB VPWR
.ends

* Black-box entry subcircuit for sky130_fd_sc_hd__diode_2 abstract view
.subckt sky130_fd_sc_hd__diode_2 DIODE VGND VNB VPB VPWR
.ends

* Black-box entry subcircuit for sky130_fd_sc_hd__dfrtp_4 abstract view
.subckt sky130_fd_sc_hd__dfrtp_4 CLK D RESET_B VGND VNB VPB VPWR Q
.ends

* Black-box entry subcircuit for sky130_fd_sc_hd__fill_2 abstract view
.subckt sky130_fd_sc_hd__fill_2 VGND VNB VPB VPWR
.ends

* Black-box entry subcircuit for sky130_fd_sc_hd__dfrtp_1 abstract view
.subckt sky130_fd_sc_hd__dfrtp_1 CLK D RESET_B VGND VNB VPB VPWR Q
.ends

* Black-box entry subcircuit for sky130_fd_sc_hd__buf_1 abstract view
.subckt sky130_fd_sc_hd__buf_1 A VGND VNB VPB VPWR X
.ends

* Black-box entry subcircuit for sky130_fd_sc_hd__clkinv_2 abstract view
.subckt sky130_fd_sc_hd__clkinv_2 A VGND VNB VPB VPWR Y
.ends

* Black-box entry subcircuit for sky130_fd_sc_hd__clkinvlp_4 abstract view
.subckt sky130_fd_sc_hd__clkinvlp_4 A VGND VNB VPB VPWR Y
.ends

* Black-box entry subcircuit for sky130_fd_sc_hd__inv_6 abstract view
.subckt sky130_fd_sc_hd__inv_6 A VGND VNB VPB VPWR Y
.ends

* Black-box entry subcircuit for sky130_fd_sc_hd__clkbuf_16 abstract view
.subckt sky130_fd_sc_hd__clkbuf_16 A VGND VNB VPB VPWR X
.ends

* Black-box entry subcircuit for sky130_fd_sc_hd__dfrtp_2 abstract view
.subckt sky130_fd_sc_hd__dfrtp_2 CLK D RESET_B VGND VNB VPB VPWR Q
.ends

* Black-box entry subcircuit for sky130_fd_sc_hd__and2_1 abstract view
.subckt sky130_fd_sc_hd__and2_1 A B VGND VNB VPB VPWR X
.ends

* Black-box entry subcircuit for sky130_fd_sc_hd__dlymetal6s2s_1 abstract view
.subckt sky130_fd_sc_hd__dlymetal6s2s_1 A VGND VNB VPB VPWR X
.ends

* Black-box entry subcircuit for sky130_fd_sc_hd__conb_1 abstract view
.subckt sky130_fd_sc_hd__conb_1 VGND VNB VPB VPWR HI LO
.ends

* Black-box entry subcircuit for sky130_fd_sc_hd__clkbuf_2 abstract view
.subckt sky130_fd_sc_hd__clkbuf_2 A VGND VNB VPB VPWR X
.ends

* Black-box entry subcircuit for sky130_fd_sc_hd__buf_12 abstract view
.subckt sky130_fd_sc_hd__buf_12 A VGND VNB VPB VPWR X
.ends

.subckt mult VGND VPWR a[0] a[1] a[2] a[3] a[4] a[5] a[6] a[7] b[0] b[1] b[2] b[3]
+ b[4] b[5] b[6] b[7] clk product_out[0] product_out[10] product_out[11] product_out[12]
+ product_out[13] product_out[14] product_out[15] product_out[1] product_out[2] product_out[3]
+ product_out[4] product_out[5] product_out[6] product_out[7] product_out[8] product_out[9]
+ rst
XFILLER_79_391 VGND VGND VPWR VPWR sky130_fd_sc_hd__fill_1
XFILLER_95_895 VGND VGND VPWR VPWR sky130_fd_sc_hd__fill_1
XFILLER_82_501 VPWR VGND VPWR VGND sky130_ef_sc_hd__decap_12
XFILLER_27_417 VPWR VGND VPWR VGND sky130_ef_sc_hd__decap_12
XFILLER_82_545 VPWR VGND VPWR VGND sky130_ef_sc_hd__decap_12
XFILLER_67_597 VPWR VGND VPWR VGND sky130_ef_sc_hd__decap_12
XPHY_EDGE_ROW_6_Left_168 VGND VGND VPWR VPWR sky130_fd_sc_hd__decap_3
XFILLER_82_589 VPWR VGND VPWR VGND sky130_ef_sc_hd__decap_12
XFILLER_51_921 VPWR VGND VPWR VGND sky130_ef_sc_hd__decap_12
XFILLER_35_461 VPWR VGND VPWR VGND sky130_ef_sc_hd__decap_12
XFILLER_52_29 VPWR VGND VPWR VGND sky130_ef_sc_hd__decap_12
XFILLER_22_133 VGND VGND VPWR VPWR sky130_fd_sc_hd__decap_6
XFILLER_50_475 VGND VGND VPWR VPWR sky130_fd_sc_hd__fill_1
XFILLER_149_853 VPWR VGND VPWR VGND sky130_ef_sc_hd__decap_12
XFILLER_22_177 VPWR VGND VPWR VGND sky130_ef_sc_hd__decap_12
XTAP_TAPCELL_ROW_44_1092 VGND VPWR sky130_fd_sc_hd__tapvpwrvgnd_1
XTAP_TAPCELL_ROW_150_2905 VGND VPWR sky130_fd_sc_hd__tapvpwrvgnd_1
XFILLER_149_897 VPWR VGND VPWR VGND sky130_ef_sc_hd__decap_12
XFILLER_148_363 VGND VGND VPWR VPWR sky130_fd_sc_hd__fill_1
XFILLER_136_525 VGND VGND VPWR VPWR sky130_fd_sc_hd__decap_6
XFILLER_151_517 VPWR VGND VPWR VGND sky130_ef_sc_hd__decap_12
XFILLER_136_569 VPWR VGND VPWR VGND sky130_ef_sc_hd__decap_12
XFILLER_117_783 VGND VGND VPWR VPWR sky130_fd_sc_hd__fill_1
XFILLER_105_945 VGND VGND VPWR VPWR sky130_fd_sc_hd__decap_6
XFILLER_89_111 VGND VGND VPWR VPWR sky130_fd_sc_hd__fill_1
XFILLER_117_55 VGND VGND VPWR VPWR sky130_fd_sc_hd__fill_1
XFILLER_104_433 VPWR VGND VPWR VGND sky130_ef_sc_hd__decap_12
XFILLER_77_15 VPWR VGND VPWR VGND sky130_ef_sc_hd__decap_12
XFILLER_120_937 VPWR VGND VPWR VGND sky130_ef_sc_hd__decap_12
XFILLER_104_477 VPWR VGND VPWR VGND sky130_ef_sc_hd__decap_12
XFILLER_77_317 VPWR VGND VPWR VGND sky130_ef_sc_hd__decap_12
XTAP_TAPCELL_ROW_148_2867 VGND VPWR sky130_fd_sc_hd__tapvpwrvgnd_1
XFILLER_58_531 VGND VGND VPWR VPWR sky130_fd_sc_hd__fill_1
XFILLER_92_309 VPWR VGND VPWR VGND sky130_ef_sc_hd__decap_12
XFILLER_85_361 VPWR VGND VPWR VGND sky130_ef_sc_hd__decap_12
XFILLER_45_225 VPWR VGND VPWR VGND sky130_ef_sc_hd__decap_12
XFILLER_46_737 VPWR VGND VPWR VGND sky130_ef_sc_hd__decap_12
XFILLER_93_69 VPWR VGND VPWR VGND sky130_ef_sc_hd__decap_12
XFILLER_26_41 VPWR VGND VPWR VGND sky130_ef_sc_hd__decap_12
XFILLER_27_951 VGND VGND VPWR VPWR sky130_fd_sc_hd__fill_1
XFILLER_61_729 VPWR VGND VPWR VGND sky130_ef_sc_hd__decap_12
XFILLER_54_781 VPWR VGND VPWR VGND sky130_ef_sc_hd__decap_12
XFILLER_14_601 VPWR VGND VPWR VGND sky130_ef_sc_hd__decap_12
XTAP_TAPCELL_ROW_16_618 VGND VPWR sky130_fd_sc_hd__tapvpwrvgnd_1
XTAP_TAPCELL_ROW_16_629 VGND VPWR sky130_fd_sc_hd__tapvpwrvgnd_1
XFILLER_159_617 VPWR VGND VPWR VGND sky130_ef_sc_hd__decap_12
XTAP_TAPCELL_ROW_64_1435 VGND VPWR sky130_fd_sc_hd__tapvpwrvgnd_1
XFILLER_13_111 VGND VGND VPWR VPWR sky130_fd_sc_hd__fill_1
XFILLER_14_645 VPWR VGND VPWR VGND sky130_ef_sc_hd__decap_12
XFILLER_26_85 VPWR VGND VPWR VGND sky130_ef_sc_hd__decap_12
XFILLER_9_137 VPWR VGND VPWR VGND sky130_ef_sc_hd__decap_12
XFILLER_41_497 VGND VGND VPWR VPWR sky130_fd_sc_hd__decap_6
XFILLER_139_385 VGND VGND VPWR VPWR sky130_fd_sc_hd__decap_6
XFILLER_127_503 VGND VGND VPWR VPWR sky130_fd_sc_hd__fill_1
XFILLER_6_811 VGND VGND VPWR VPWR sky130_fd_sc_hd__fill_1
XFILLER_154_333 VPWR VGND VPWR VGND sky130_ef_sc_hd__decap_12
XFILLER_155_889 VGND VGND VPWR VPWR sky130_fd_sc_hd__decap_6
XFILLER_154_377 VPWR VGND VPWR VGND sky130_ef_sc_hd__decap_12
XFILLER_115_709 VPWR VGND VPWR VGND sky130_ef_sc_hd__decap_12
XFILLER_123_753 VPWR VGND VPWR VGND sky130_ef_sc_hd__decap_12
XFILLER_107_293 VPWR VGND VPWR VGND sky130_ef_sc_hd__decap_12
XFILLER_123_797 VPWR VGND VPWR VGND sky130_ef_sc_hd__decap_12
XFILLER_95_125 VPWR VGND VPWR VGND sky130_ef_sc_hd__decap_12
XFILLER_110_469 VGND VGND VPWR VPWR sky130_fd_sc_hd__decap_6
XFILLER_95_169 VPWR VGND VPWR VGND sky130_ef_sc_hd__decap_12
XFILLER_67_81 VPWR VGND VPWR VGND sky130_ef_sc_hd__decap_12
XFILLER_64_501 VPWR VGND VPWR VGND sky130_ef_sc_hd__decap_12
XFILLER_49_553 VGND VGND VPWR VPWR sky130_fd_sc_hd__decap_6
XFILLER_77_895 VGND VGND VPWR VPWR sky130_fd_sc_hd__fill_1
XFILLER_49_597 VPWR VGND VPWR VGND sky130_ef_sc_hd__decap_12
XFILLER_64_589 VGND VGND VPWR VPWR sky130_fd_sc_hd__decap_8
XFILLER_51_217 VGND VGND VPWR VPWR sky130_fd_sc_hd__decap_6
XFILLER_17_461 VPWR VGND VPWR VGND sky130_ef_sc_hd__decap_12
XFILLER_33_921 VPWR VGND VPWR VGND sky130_ef_sc_hd__decap_12
XTAP_TAPCELL_ROW_35_938 VGND VPWR sky130_fd_sc_hd__tapvpwrvgnd_1
XTAP_TAPCELL_ROW_35_949 VGND VPWR sky130_fd_sc_hd__tapvpwrvgnd_1
XFILLER_149_105 VGND VGND VPWR VPWR sky130_fd_sc_hd__decap_6
XFILLER_32_475 VGND VGND VPWR VPWR sky130_fd_sc_hd__fill_1
XFILLER_149_149 VPWR VGND VPWR VGND sky130_ef_sc_hd__decap_12
XFILLER_20_637 VGND VGND VPWR VPWR sky130_fd_sc_hd__decap_6
XFILLER_9_671 VGND VGND VPWR VPWR sky130_fd_sc_hd__fill_1
XFILLER_157_193 VPWR VGND VPWR VGND sky130_ef_sc_hd__decap_12
XFILLER_146_867 VGND VGND VPWR VPWR sky130_fd_sc_hd__fill_1
XFILLER_118_525 VGND VGND VPWR VPWR sky130_fd_sc_hd__decap_6
XFILLER_133_517 VPWR VGND VPWR VGND sky130_ef_sc_hd__decap_12
XFILLER_118_569 VPWR VGND VPWR VGND sky130_ef_sc_hd__decap_12
XFILLER_161_837 VGND VGND VPWR VPWR sky130_fd_sc_hd__decap_3
XFILLER_141_561 VPWR VGND VPWR VGND sky130_ef_sc_hd__decap_12
XFILLER_102_937 VPWR VGND VPWR VGND sky130_ef_sc_hd__decap_12
XFILLER_99_497 VGND VGND VPWR VPWR sky130_fd_sc_hd__decap_6
XFILLER_87_615 VGND VGND VPWR VPWR sky130_fd_sc_hd__fill_1
XFILLER_59_317 VPWR VGND VPWR VGND sky130_ef_sc_hd__decap_12
XFILLER_101_447 VGND VGND VPWR VPWR sky130_fd_sc_hd__fill_1
XFILLER_47_18 VPWR VGND VPWR VGND sky130_ef_sc_hd__decap_12
XFILLER_74_309 VPWR VGND VPWR VGND sky130_ef_sc_hd__decap_12
XFILLER_67_361 VPWR VGND VPWR VGND sky130_ef_sc_hd__decap_12
XFILLER_83_821 VPWR VGND VPWR VGND sky130_ef_sc_hd__decap_12
XFILLER_27_225 VPWR VGND VPWR VGND sky130_ef_sc_hd__decap_12
XFILLER_28_737 VPWR VGND VPWR VGND sky130_ef_sc_hd__decap_12
XTAP_TAPCELL_ROW_143_2786 VGND VPWR sky130_fd_sc_hd__tapvpwrvgnd_1
XTAP_TAPCELL_ROW_143_2775 VGND VPWR sky130_fd_sc_hd__tapvpwrvgnd_1
XFILLER_103_57 VPWR VGND VPWR VGND sky130_ef_sc_hd__decap_12
XFILLER_83_865 VPWR VGND VPWR VGND sky130_ef_sc_hd__decap_12
XTAP_TAPCELL_ROW_2_379 VGND VPWR sky130_fd_sc_hd__tapvpwrvgnd_1
XFILLER_63_39 VPWR VGND VPWR VGND sky130_ef_sc_hd__decap_12
XFILLER_36_781 VPWR VGND VPWR VGND sky130_ef_sc_hd__decap_12
XFILLER_43_729 VPWR VGND VPWR VGND sky130_ef_sc_hd__decap_12
XTAP_TAPCELL_ROW_46_1132 VGND VPWR sky130_fd_sc_hd__tapvpwrvgnd_1
XFILLER_11_615 VGND VGND VPWR VPWR sky130_fd_sc_hd__fill_1
XFILLER_23_497 VGND VGND VPWR VPWR sky130_fd_sc_hd__decap_6
XFILLER_136_333 VPWR VGND VPWR VGND sky130_ef_sc_hd__decap_12
XTAP_TAPCELL_ROW_21_698 VGND VPWR sky130_fd_sc_hd__tapvpwrvgnd_1
XFILLER_137_889 VGND VGND VPWR VPWR sky130_fd_sc_hd__decap_6
XFILLER_12_65 VPWR VGND VPWR VGND sky130_ef_sc_hd__decap_12
XFILLER_152_837 VPWR VGND VPWR VGND sky130_ef_sc_hd__decap_12
XFILLER_136_377 VPWR VGND VPWR VGND sky130_ef_sc_hd__decap_12
XFILLER_128_65 VPWR VGND VPWR VGND sky130_ef_sc_hd__decap_12
XFILLER_105_753 VPWR VGND VPWR VGND sky130_ef_sc_hd__decap_12
XFILLER_2_357 VGND VGND VPWR VPWR sky130_fd_sc_hd__decap_6
XFILLER_160_881 VPWR VGND VPWR VGND sky130_ef_sc_hd__decap_12
XFILLER_120_701 VPWR VGND VPWR VGND sky130_ef_sc_hd__decap_12
XFILLER_105_797 VPWR VGND VPWR VGND sky130_ef_sc_hd__decap_12
XFILLER_78_637 VGND VGND VPWR VPWR sky130_fd_sc_hd__decap_6
XFILLER_144_53 VPWR VGND VPWR VGND sky130_ef_sc_hd__decap_12
XFILLER_77_125 VPWR VGND VPWR VGND sky130_ef_sc_hd__decap_12
XFILLER_144_97 VPWR VGND VPWR VGND sky130_ef_sc_hd__decap_12
XFILLER_93_629 VPWR VGND VPWR VGND sky130_ef_sc_hd__decap_12
XFILLER_77_169 VPWR VGND VPWR VGND sky130_ef_sc_hd__decap_12
XFILLER_46_501 VPWR VGND VPWR VGND sky130_ef_sc_hd__decap_12
XFILLER_92_139 VGND VGND VPWR VPWR sky130_fd_sc_hd__fill_1
XFILLER_86_681 VPWR VGND VPWR VGND sky130_ef_sc_hd__decap_12
XFILLER_59_895 VGND VGND VPWR VPWR sky130_fd_sc_hd__fill_1
XFILLER_37_51 VGND VGND VPWR VPWR sky130_fd_sc_hd__decap_4
XFILLER_160_41 VPWR VGND VPWR VGND sky130_ef_sc_hd__decap_12
XFILLER_46_545 VPWR VGND VPWR VGND sky130_ef_sc_hd__decap_12
XFILLER_160_85 VPWR VGND VPWR VGND sky130_ef_sc_hd__decap_12
XFILLER_15_921 VPWR VGND VPWR VGND sky130_ef_sc_hd__decap_12
XFILLER_33_217 VGND VGND VPWR VPWR sky130_fd_sc_hd__decap_6
XFILLER_46_589 VPWR VGND VPWR VGND sky130_ef_sc_hd__decap_12
XFILLER_61_559 VGND VGND VPWR VPWR sky130_fd_sc_hd__fill_1
XFILLER_159_447 VGND VGND VPWR VPWR sky130_fd_sc_hd__fill_1
XFILLER_147_609 VGND VGND VPWR VPWR sky130_fd_sc_hd__decap_6
XTAP_TAPCELL_ROW_99_2029 VGND VPWR sky130_fd_sc_hd__tapvpwrvgnd_1
XFILLER_14_475 VGND VGND VPWR VPWR sky130_fd_sc_hd__fill_1
XFILLER_41_261 VPWR VGND VPWR VGND sky130_ef_sc_hd__decap_12
XFILLER_139_193 VPWR VGND VPWR VGND sky130_ef_sc_hd__decap_12
XFILLER_10_681 VPWR VGND VPWR VGND sky130_ef_sc_hd__decap_12
XFILLER_155_653 VPWR VGND VPWR VGND sky130_ef_sc_hd__decap_12
XFILLER_154_141 VPWR VGND VPWR VGND sky130_ef_sc_hd__decap_12
XFILLER_128_867 VGND VGND VPWR VPWR sky130_fd_sc_hd__fill_1
XFILLER_155_697 VPWR VGND VPWR VGND sky130_ef_sc_hd__decap_12
XFILLER_115_517 VPWR VGND VPWR VGND sky130_ef_sc_hd__decap_12
XTAP_TAPCELL_ROW_94_1951 VGND VPWR sky130_fd_sc_hd__tapvpwrvgnd_1
XTAP_TAPCELL_ROW_94_1940 VGND VPWR sky130_fd_sc_hd__tapvpwrvgnd_1
XTAP_TAPCELL_ROW_77_1659 VGND VPWR sky130_fd_sc_hd__tapvpwrvgnd_1
XTAP_TAPCELL_ROW_110_2218 VGND VPWR sky130_fd_sc_hd__tapvpwrvgnd_1
XFILLER_123_561 VPWR VGND VPWR VGND sky130_ef_sc_hd__decap_12
XFILLER_96_401 VPWR VGND VPWR VGND sky130_ef_sc_hd__decap_12
XFILLER_69_615 VGND VGND VPWR VPWR sky130_fd_sc_hd__fill_1
XFILLER_110_233 VPWR VGND VPWR VGND sky130_ef_sc_hd__decap_12
XFILLER_96_445 VPWR VGND VPWR VGND sky130_ef_sc_hd__decap_12
XPHY_EDGE_ROW_87_Left_249 VGND VGND VPWR VPWR sky130_fd_sc_hd__decap_3
XFILLER_96_489 VPWR VGND VPWR VGND sky130_ef_sc_hd__decap_12
XFILLER_56_309 VPWR VGND VPWR VGND sky130_ef_sc_hd__decap_12
XFILLER_110_277 VPWR VGND VPWR VGND sky130_ef_sc_hd__decap_12
XFILLER_65_821 VPWR VGND VPWR VGND sky130_ef_sc_hd__decap_12
XFILLER_49_361 VPWR VGND VPWR VGND sky130_ef_sc_hd__decap_12
XTAP_TAPCELL_ROW_160_3075 VGND VPWR sky130_fd_sc_hd__tapvpwrvgnd_1
XTAP_TAPCELL_ROW_160_3064 VGND VPWR sky130_fd_sc_hd__tapvpwrvgnd_1
XFILLER_65_865 VPWR VGND VPWR VGND sky130_ef_sc_hd__decap_12
XTAP_TAPCELL_ROW_125_2472 VGND VPWR sky130_fd_sc_hd__tapvpwrvgnd_1
XFILLER_91_161 VGND VGND VPWR VPWR sky130_fd_sc_hd__decap_6
XFILLER_80_813 VPWR VGND VPWR VGND sky130_ef_sc_hd__decap_12
XFILLER_18_781 VPWR VGND VPWR VGND sky130_ef_sc_hd__decap_12
XFILLER_25_729 VPWR VGND VPWR VGND sky130_ef_sc_hd__decap_12
XPHY_EDGE_ROW_96_Left_258 VGND VGND VPWR VPWR sky130_fd_sc_hd__decap_3
XFILLER_60_581 VGND VGND VPWR VPWR sky130_fd_sc_hd__decap_6
XFILLER_20_401 VPWR VGND VPWR VGND sky130_ef_sc_hd__decap_12
XFILLER_20_445 VPWR VGND VPWR VGND sky130_ef_sc_hd__decap_12
XTAP_TAPCELL_ROW_41_1040 VGND VPWR sky130_fd_sc_hd__tapvpwrvgnd_1
XFILLER_118_333 VPWR VGND VPWR VGND sky130_ef_sc_hd__decap_12
XFILLER_20_489 VPWR VGND VPWR VGND sky130_ef_sc_hd__decap_12
XTAP_TAPCELL_ROW_41_1051 VGND VPWR sky130_fd_sc_hd__tapvpwrvgnd_1
XFILLER_161_601 VPWR VGND VPWR VGND sky130_ef_sc_hd__decap_12
XFILLER_119_889 VGND VGND VPWR VPWR sky130_fd_sc_hd__decap_6
XFILLER_134_837 VPWR VGND VPWR VGND sky130_ef_sc_hd__decap_12
XFILLER_118_377 VPWR VGND VPWR VGND sky130_ef_sc_hd__decap_12
XFILLER_161_645 VPWR VGND VPWR VGND sky130_ef_sc_hd__decap_12
XFILLER_160_133 VGND VGND VPWR VPWR sky130_fd_sc_hd__decap_6
XFILLER_160_177 VPWR VGND VPWR VGND sky130_ef_sc_hd__decap_12
XFILLER_142_881 VPWR VGND VPWR VGND sky130_ef_sc_hd__decap_12
XFILLER_102_701 VPWR VGND VPWR VGND sky130_ef_sc_hd__decap_12
XFILLER_99_261 VPWR VGND VPWR VGND sky130_ef_sc_hd__decap_12
XFILLER_141_391 VGND VGND VPWR VPWR sky130_fd_sc_hd__fill_1
XFILLER_59_125 VPWR VGND VPWR VGND sky130_ef_sc_hd__decap_12
XTAP_TAPCELL_ROW_145_2815 VGND VPWR sky130_fd_sc_hd__tapvpwrvgnd_1
XFILLER_75_629 VPWR VGND VPWR VGND sky130_ef_sc_hd__decap_12
XFILLER_59_169 VPWR VGND VPWR VGND sky130_ef_sc_hd__decap_12
XFILLER_74_139 VGND VGND VPWR VPWR sky130_fd_sc_hd__fill_1
XFILLER_68_681 VPWR VGND VPWR VGND sky130_ef_sc_hd__decap_12
XFILLER_28_501 VPWR VGND VPWR VGND sky130_ef_sc_hd__decap_12
XFILLER_74_27 VGND VGND VPWR VPWR sky130_fd_sc_hd__fill_1
XFILLER_28_545 VPWR VGND VPWR VGND sky130_ef_sc_hd__decap_12
XFILLER_83_673 VPWR VGND VPWR VGND sky130_ef_sc_hd__decap_12
XFILLER_70_301 VGND VGND VPWR VPWR sky130_fd_sc_hd__decap_6
XFILLER_15_217 VGND VGND VPWR VPWR sky130_fd_sc_hd__decap_6
XFILLER_28_589 VPWR VGND VPWR VGND sky130_ef_sc_hd__decap_12
XFILLER_70_345 VPWR VGND VPWR VGND sky130_ef_sc_hd__decap_12
XFILLER_43_559 VGND VGND VPWR VPWR sky130_fd_sc_hd__fill_1
XFILLER_130_77 VGND VGND VPWR VPWR sky130_fd_sc_hd__decap_6
XFILLER_90_15 VPWR VGND VPWR VGND sky130_ef_sc_hd__decap_12
XFILLER_30_209 VPWR VGND VPWR VGND sky130_ef_sc_hd__decap_12
XFILLER_129_609 VGND VGND VPWR VPWR sky130_fd_sc_hd__decap_6
XFILLER_70_389 VPWR VGND VPWR VGND sky130_ef_sc_hd__decap_12
XFILLER_23_261 VPWR VGND VPWR VGND sky130_ef_sc_hd__decap_12
XFILLER_135_3 VPWR VGND VPWR VGND sky130_ef_sc_hd__decap_12
XFILLER_8_917 VGND VGND VPWR VPWR sky130_fd_sc_hd__decap_6
XFILLER_7_405 VPWR VGND VPWR VGND sky130_ef_sc_hd__decap_12
XTAP_TAPCELL_ROW_156_2999 VGND VPWR sky130_fd_sc_hd__tapvpwrvgnd_1
XPHY_EDGE_ROW_137_Right_137 VGND VGND VPWR VPWR sky130_fd_sc_hd__decap_3
XFILLER_7_449 VPWR VGND VPWR VGND sky130_ef_sc_hd__decap_12
XFILLER_152_601 VPWR VGND VPWR VGND sky130_ef_sc_hd__decap_12
XFILLER_137_653 VPWR VGND VPWR VGND sky130_ef_sc_hd__decap_12
XFILLER_136_141 VPWR VGND VPWR VGND sky130_ef_sc_hd__decap_12
XFILLER_151_111 VGND VGND VPWR VPWR sky130_fd_sc_hd__fill_1
XFILLER_137_697 VPWR VGND VPWR VGND sky130_ef_sc_hd__decap_12
XFILLER_99_57 VPWR VGND VPWR VGND sky130_ef_sc_hd__decap_12
XTAP_TAPCELL_ROW_59_1356 VGND VPWR sky130_fd_sc_hd__tapvpwrvgnd_1
XTAP_TAPCELL_ROW_59_1345 VGND VPWR sky130_fd_sc_hd__tapvpwrvgnd_1
XFILLER_152_645 VPWR VGND VPWR VGND sky130_ef_sc_hd__decap_12
XFILLER_2_121 VPWR VGND VPWR VGND sky130_ef_sc_hd__decap_12
XFILLER_105_561 VPWR VGND VPWR VGND sky130_ef_sc_hd__decap_12
XFILLER_78_401 VPWR VGND VPWR VGND sky130_ef_sc_hd__decap_12
XFILLER_2_165 VPWR VGND VPWR VGND sky130_ef_sc_hd__decap_12
XFILLER_120_531 VGND VGND VPWR VPWR sky130_fd_sc_hd__fill_1
XTAP_TAPCELL_ROW_72_1578 VGND VPWR sky130_fd_sc_hd__tapvpwrvgnd_1
XTAP_TAPCELL_ROW_72_1567 VGND VPWR sky130_fd_sc_hd__tapvpwrvgnd_1
XFILLER_94_905 VPWR VGND VPWR VGND sky130_ef_sc_hd__decap_12
XFILLER_38_309 VPWR VGND VPWR VGND sky130_ef_sc_hd__decap_12
XFILLER_94_949 VGND VGND VPWR VPWR sky130_fd_sc_hd__decap_6
XFILLER_78_489 VPWR VGND VPWR VGND sky130_ef_sc_hd__decap_12
XFILLER_47_821 VPWR VGND VPWR VGND sky130_ef_sc_hd__decap_12
XFILLER_48_83 VGND VGND VPWR VPWR sky130_fd_sc_hd__fill_1
XFILLER_47_865 VPWR VGND VPWR VGND sky130_ef_sc_hd__decap_12
XFILLER_80_109 VPWR VGND VPWR VGND sky130_ef_sc_hd__decap_12
XFILLER_73_161 VGND VGND VPWR VPWR sky130_fd_sc_hd__decap_6
XFILLER_62_813 VPWR VGND VPWR VGND sky130_ef_sc_hd__decap_12
XFILLER_0_57 VPWR VGND VPWR VGND sky130_ef_sc_hd__decap_12
XTAP_TAPCELL_ROW_120_2391 VGND VPWR sky130_fd_sc_hd__tapvpwrvgnd_1
XTAP_TAPCELL_ROW_103_2099 VGND VPWR sky130_fd_sc_hd__tapvpwrvgnd_1
XFILLER_42_581 VGND VGND VPWR VPWR sky130_fd_sc_hd__decap_6
XFILLER_147_417 VPWR VGND VPWR VGND sky130_ef_sc_hd__decap_12
XFILLER_9_55 VGND VGND VPWR VPWR sky130_fd_sc_hd__fill_1
XPHY_EDGE_ROW_104_Right_104 VGND VGND VPWR VPWR sky130_fd_sc_hd__decap_3
XFILLER_155_461 VPWR VGND VPWR VGND sky130_ef_sc_hd__decap_12
XFILLER_116_837 VPWR VGND VPWR VGND sky130_ef_sc_hd__decap_12
XFILLER_142_133 VGND VGND VPWR VPWR sky130_fd_sc_hd__decap_6
XFILLER_50_3 VPWR VGND VPWR VGND sky130_ef_sc_hd__decap_12
XFILLER_142_177 VPWR VGND VPWR VGND sky130_ef_sc_hd__decap_12
XFILLER_124_881 VPWR VGND VPWR VGND sky130_ef_sc_hd__decap_12
XFILLER_88_209 VPWR VGND VPWR VGND sky130_ef_sc_hd__decap_12
XFILLER_123_391 VGND VGND VPWR VPWR sky130_fd_sc_hd__fill_1
XFILLER_97_721 VGND VGND VPWR VPWR sky130_fd_sc_hd__decap_6
XTAP_TAPCELL_ROW_127_2512 VGND VPWR sky130_fd_sc_hd__tapvpwrvgnd_1
XTAP_TAPCELL_ROW_127_2501 VGND VPWR sky130_fd_sc_hd__tapvpwrvgnd_1
XFILLER_111_553 VGND VGND VPWR VPWR sky130_fd_sc_hd__decap_6
XFILLER_97_765 VPWR VGND VPWR VGND sky130_ef_sc_hd__decap_12
XFILLER_96_253 VPWR VGND VPWR VGND sky130_ef_sc_hd__decap_12
XTAP_TAPCELL_ROW_4_419 VGND VPWR sky130_fd_sc_hd__tapvpwrvgnd_1
XFILLER_111_597 VPWR VGND VPWR VGND sky130_ef_sc_hd__decap_12
XFILLER_57_629 VPWR VGND VPWR VGND sky130_ef_sc_hd__decap_12
XFILLER_56_139 VGND VGND VPWR VPWR sky130_fd_sc_hd__fill_1
XTAP_TAPCELL_ROW_140_2734 VGND VPWR sky130_fd_sc_hd__tapvpwrvgnd_1
XTAP_TAPCELL_ROW_140_2723 VGND VPWR sky130_fd_sc_hd__tapvpwrvgnd_1
XFILLER_65_673 VPWR VGND VPWR VGND sky130_ef_sc_hd__decap_12
XFILLER_52_301 VGND VGND VPWR VPWR sky130_fd_sc_hd__decap_6
XFILLER_80_643 VGND VGND VPWR VPWR sky130_fd_sc_hd__fill_1
XFILLER_25_559 VGND VGND VPWR VPWR sky130_fd_sc_hd__fill_1
XFILLER_52_345 VPWR VGND VPWR VGND sky130_ef_sc_hd__decap_12
XFILLER_12_209 VPWR VGND VPWR VGND sky130_ef_sc_hd__decap_12
XFILLER_52_389 VPWR VGND VPWR VGND sky130_ef_sc_hd__decap_12
XFILLER_21_721 VGND VGND VPWR VPWR sky130_fd_sc_hd__decap_6
XTAP_TAPCELL_ROW_23_738 VGND VPWR sky130_fd_sc_hd__tapvpwrvgnd_1
XFILLER_21_765 VPWR VGND VPWR VGND sky130_ef_sc_hd__decap_12
XFILLER_60_29 VPWR VGND VPWR VGND sky130_ef_sc_hd__decap_12
XFILLER_20_253 VPWR VGND VPWR VGND sky130_ef_sc_hd__decap_12
XFILLER_147_951 VGND VGND VPWR VPWR sky130_fd_sc_hd__fill_1
XTAP_TAPCELL_ROW_138_2696 VGND VPWR sky130_fd_sc_hd__tapvpwrvgnd_1
XFILLER_119_653 VPWR VGND VPWR VGND sky130_ef_sc_hd__decap_12
XFILLER_118_141 VPWR VGND VPWR VGND sky130_ef_sc_hd__decap_12
XFILLER_5_909 VPWR VGND VPWR VGND sky130_ef_sc_hd__decap_12
XFILLER_134_601 VPWR VGND VPWR VGND sky130_ef_sc_hd__decap_12
XFILLER_119_697 VPWR VGND VPWR VGND sky130_ef_sc_hd__decap_12
XFILLER_4_419 VGND VGND VPWR VPWR sky130_fd_sc_hd__fill_1
XFILLER_134_645 VPWR VGND VPWR VGND sky130_ef_sc_hd__decap_12
XFILLER_133_111 VGND VGND VPWR VPWR sky130_fd_sc_hd__fill_1
XFILLER_69_27 VPWR VGND VPWR VGND sky130_ef_sc_hd__decap_12
XFILLER_121_317 VPWR VGND VPWR VGND sky130_ef_sc_hd__decap_12
XFILLER_102_531 VGND VGND VPWR VPWR sky130_fd_sc_hd__fill_1
XFILLER_125_55 VGND VGND VPWR VPWR sky130_fd_sc_hd__fill_1
XFILLER_76_905 VPWR VGND VPWR VGND sky130_ef_sc_hd__decap_12
XTAP_TAPCELL_ROW_54_1275 VGND VPWR sky130_fd_sc_hd__tapvpwrvgnd_1
XTAP_TAPCELL_ROW_54_1264 VGND VPWR sky130_fd_sc_hd__tapvpwrvgnd_1
XFILLER_0_669 VGND VGND VPWR VPWR sky130_fd_sc_hd__decap_3
XFILLER_76_949 VGND VGND VPWR VPWR sky130_fd_sc_hd__decap_6
XFILLER_29_821 VPWR VGND VPWR VGND sky130_ef_sc_hd__decap_12
XFILLER_18_53 VPWR VGND VPWR VGND sky130_ef_sc_hd__decap_12
XFILLER_29_865 VPWR VGND VPWR VGND sky130_ef_sc_hd__decap_12
XFILLER_62_109 VPWR VGND VPWR VGND sky130_ef_sc_hd__decap_12
XFILLER_55_161 VGND VGND VPWR VPWR sky130_fd_sc_hd__decap_6
XFILLER_44_813 VPWR VGND VPWR VGND sky130_ef_sc_hd__decap_12
XFILLER_18_97 VPWR VGND VPWR VGND sky130_ef_sc_hd__decap_12
XFILLER_71_665 VGND VGND VPWR VPWR sky130_fd_sc_hd__decap_6
XFILLER_70_153 VPWR VGND VPWR VGND sky130_ef_sc_hd__decap_12
XFILLER_24_581 VGND VGND VPWR VPWR sky130_fd_sc_hd__decap_6
XFILLER_31_529 VPWR VGND VPWR VGND sky130_ef_sc_hd__decap_12
XFILLER_34_41 VPWR VGND VPWR VGND sky130_ef_sc_hd__decap_12
XFILLER_129_417 VPWR VGND VPWR VGND sky130_ef_sc_hd__decap_12
XFILLER_70_197 VPWR VGND VPWR VGND sky130_ef_sc_hd__decap_12
XFILLER_34_85 VPWR VGND VPWR VGND sky130_ef_sc_hd__decap_12
XFILLER_8_725 VPWR VGND VPWR VGND sky130_ef_sc_hd__decap_12
XFILLER_8_769 VPWR VGND VPWR VGND sky130_ef_sc_hd__decap_12
XFILLER_153_921 VPWR VGND VPWR VGND sky130_ef_sc_hd__decap_12
XFILLER_137_461 VPWR VGND VPWR VGND sky130_ef_sc_hd__decap_12
XFILLER_7_279 VGND VGND VPWR VPWR sky130_fd_sc_hd__fill_1
XFILLER_124_133 VGND VGND VPWR VPWR sky130_fd_sc_hd__decap_6
XTAP_TAPCELL_ROW_74_1607 VGND VPWR sky130_fd_sc_hd__tapvpwrvgnd_1
XFILLER_152_475 VGND VGND VPWR VPWR sky130_fd_sc_hd__fill_1
XFILLER_3_441 VGND VGND VPWR VPWR sky130_fd_sc_hd__decap_6
XFILLER_140_637 VGND VGND VPWR VPWR sky130_fd_sc_hd__decap_6
XFILLER_124_177 VPWR VGND VPWR VGND sky130_ef_sc_hd__decap_12
XFILLER_106_881 VPWR VGND VPWR VGND sky130_ef_sc_hd__decap_12
XFILLER_79_721 VGND VGND VPWR VPWR sky130_fd_sc_hd__decap_6
XFILLER_3_485 VPWR VGND VPWR VGND sky130_ef_sc_hd__decap_12
XFILLER_105_391 VGND VGND VPWR VPWR sky130_fd_sc_hd__fill_1
XFILLER_79_765 VPWR VGND VPWR VGND sky130_ef_sc_hd__decap_12
XFILLER_78_253 VPWR VGND VPWR VGND sky130_ef_sc_hd__decap_12
XFILLER_59_93 VPWR VGND VPWR VGND sky130_ef_sc_hd__decap_12
XFILLER_121_895 VGND VGND VPWR VPWR sky130_fd_sc_hd__fill_1
XFILLER_94_713 VPWR VGND VPWR VGND sky130_ef_sc_hd__decap_12
XFILLER_39_629 VPWR VGND VPWR VGND sky130_ef_sc_hd__decap_12
XFILLER_94_757 VPWR VGND VPWR VGND sky130_ef_sc_hd__decap_12
XFILLER_93_223 VGND VGND VPWR VPWR sky130_fd_sc_hd__fill_1
XFILLER_38_139 VGND VGND VPWR VPWR sky130_fd_sc_hd__fill_1
XTAP_TAPCELL_ROW_105_2139 VGND VPWR sky130_fd_sc_hd__tapvpwrvgnd_1
XTAP_TAPCELL_ROW_105_2128 VGND VPWR sky130_fd_sc_hd__tapvpwrvgnd_1
XTAP_TAPCELL_ROW_89_1861 VGND VPWR sky130_fd_sc_hd__tapvpwrvgnd_1
XFILLER_81_429 VPWR VGND VPWR VGND sky130_ef_sc_hd__decap_12
XFILLER_75_81 VPWR VGND VPWR VGND sky130_ef_sc_hd__decap_12
XFILLER_47_673 VPWR VGND VPWR VGND sky130_ef_sc_hd__decap_12
XTAP_TAPCELL_ROW_122_2431 VGND VPWR sky130_fd_sc_hd__tapvpwrvgnd_1
XTAP_TAPCELL_ROW_122_2420 VGND VPWR sky130_fd_sc_hd__tapvpwrvgnd_1
XFILLER_62_643 VGND VGND VPWR VPWR sky130_fd_sc_hd__fill_1
XFILLER_34_301 VGND VGND VPWR VPWR sky130_fd_sc_hd__decap_6
XFILLER_50_805 VGND VGND VPWR VPWR sky130_fd_sc_hd__decap_6
XFILLER_34_345 VPWR VGND VPWR VGND sky130_ef_sc_hd__decap_12
XFILLER_98_3 VPWR VGND VPWR VGND sky130_ef_sc_hd__decap_12
XFILLER_50_849 VPWR VGND VPWR VGND sky130_ef_sc_hd__decap_12
XFILLER_34_389 VPWR VGND VPWR VGND sky130_ef_sc_hd__decap_12
XFILLER_148_737 VPWR VGND VPWR VGND sky130_ef_sc_hd__decap_12
XFILLER_147_225 VPWR VGND VPWR VGND sky130_ef_sc_hd__decap_12
XFILLER_129_951 VGND VGND VPWR VPWR sky130_fd_sc_hd__fill_1
XFILLER_156_781 VPWR VGND VPWR VGND sky130_ef_sc_hd__decap_12
XFILLER_116_601 VPWR VGND VPWR VGND sky130_ef_sc_hd__decap_12
XFILLER_116_645 VPWR VGND VPWR VGND sky130_ef_sc_hd__decap_12
XFILLER_115_111 VGND VGND VPWR VPWR sky130_fd_sc_hd__fill_1
XFILLER_131_615 VGND VGND VPWR VPWR sky130_fd_sc_hd__fill_1
XFILLER_89_529 VPWR VGND VPWR VGND sky130_ef_sc_hd__decap_12
XFILLER_143_497 VGND VGND VPWR VPWR sky130_fd_sc_hd__decap_6
XFILLER_103_317 VPWR VGND VPWR VGND sky130_ef_sc_hd__decap_12
XFILLER_97_551 VGND VGND VPWR VPWR sky130_fd_sc_hd__decap_8
XFILLER_58_905 VPWR VGND VPWR VGND sky130_ef_sc_hd__decap_12
XFILLER_111_361 VPWR VGND VPWR VGND sky130_ef_sc_hd__decap_12
XFILLER_97_573 VGND VGND VPWR VPWR sky130_fd_sc_hd__decap_3
XFILLER_58_949 VGND VGND VPWR VPWR sky130_fd_sc_hd__decap_6
XFILLER_84_245 VGND VGND VPWR VPWR sky130_fd_sc_hd__decap_6
XFILLER_84_289 VPWR VGND VPWR VGND sky130_ef_sc_hd__decap_12
XFILLER_26_813 VPWR VGND VPWR VGND sky130_ef_sc_hd__decap_12
XTAP_TAPCELL_ROW_28_819 VGND VPWR sky130_fd_sc_hd__tapvpwrvgnd_1
XFILLER_44_109 VPWR VGND VPWR VGND sky130_ef_sc_hd__decap_12
XFILLER_37_161 VGND VGND VPWR VPWR sky130_fd_sc_hd__decap_6
XFILLER_53_665 VGND VGND VPWR VPWR sky130_fd_sc_hd__decap_6
XFILLER_52_153 VPWR VGND VPWR VGND sky130_ef_sc_hd__decap_12
XFILLER_111_57 VPWR VGND VPWR VGND sky130_ef_sc_hd__decap_12
XFILLER_13_529 VPWR VGND VPWR VGND sky130_ef_sc_hd__decap_12
XFILLER_71_39 VPWR VGND VPWR VGND sky130_ef_sc_hd__decap_12
XFILLER_52_197 VPWR VGND VPWR VGND sky130_ef_sc_hd__decap_12
XFILLER_21_573 VPWR VGND VPWR VGND sky130_ef_sc_hd__decap_12
XTAP_TAPCELL_ROW_153_2947 VGND VPWR sky130_fd_sc_hd__tapvpwrvgnd_1
XTAP_TAPCELL_ROW_153_2958 VGND VPWR sky130_fd_sc_hd__tapvpwrvgnd_1
XFILLER_153_217 VGND VGND VPWR VPWR sky130_fd_sc_hd__decap_6
XFILLER_135_921 VPWR VGND VPWR VGND sky130_ef_sc_hd__decap_12
XFILLER_119_461 VPWR VGND VPWR VGND sky130_ef_sc_hd__decap_12
XFILLER_106_133 VGND VGND VPWR VPWR sky130_fd_sc_hd__decap_6
XTAP_TAPCELL_ROW_56_1304 VGND VPWR sky130_fd_sc_hd__tapvpwrvgnd_1
XFILLER_134_475 VGND VGND VPWR VPWR sky130_fd_sc_hd__fill_1
XFILLER_20_65 VPWR VGND VPWR VGND sky130_ef_sc_hd__decap_12
XFILLER_136_65 VPWR VGND VPWR VGND sky130_ef_sc_hd__decap_12
XFILLER_122_637 VGND VGND VPWR VPWR sky130_fd_sc_hd__decap_6
XFILLER_121_125 VPWR VGND VPWR VGND sky130_ef_sc_hd__decap_12
XFILLER_106_177 VPWR VGND VPWR VGND sky130_ef_sc_hd__decap_12
XFILLER_1_945 VGND VGND VPWR VPWR sky130_fd_sc_hd__decap_6
XFILLER_0_433 VGND VGND VPWR VPWR sky130_fd_sc_hd__decap_8
XFILLER_130_681 VPWR VGND VPWR VGND sky130_ef_sc_hd__decap_12
XFILLER_121_169 VPWR VGND VPWR VGND sky130_ef_sc_hd__decap_12
XFILLER_103_895 VGND VGND VPWR VPWR sky130_fd_sc_hd__fill_1
XFILLER_76_713 VPWR VGND VPWR VGND sky130_ef_sc_hd__decap_12
XFILLER_0_477 VPWR VGND VPWR VGND sky130_ef_sc_hd__decap_12
XFILLER_152_53 VPWR VGND VPWR VGND sky130_ef_sc_hd__decap_12
XFILLER_76_757 VPWR VGND VPWR VGND sky130_ef_sc_hd__decap_12
XFILLER_75_223 VGND VGND VPWR VPWR sky130_fd_sc_hd__fill_1
XFILLER_152_97 VPWR VGND VPWR VGND sky130_ef_sc_hd__decap_12
XFILLER_91_727 VGND VGND VPWR VPWR sky130_fd_sc_hd__fill_1
XFILLER_29_673 VPWR VGND VPWR VGND sky130_ef_sc_hd__decap_12
XFILLER_63_429 VPWR VGND VPWR VGND sky130_ef_sc_hd__decap_12
XFILLER_16_301 VGND VGND VPWR VPWR sky130_fd_sc_hd__decap_6
XFILLER_16_345 VPWR VGND VPWR VGND sky130_ef_sc_hd__decap_12
XFILLER_32_805 VGND VGND VPWR VPWR sky130_fd_sc_hd__decap_6
XFILLER_44_643 VGND VGND VPWR VPWR sky130_fd_sc_hd__fill_1
XTAP_TAPCELL_ROW_84_1780 VGND VPWR sky130_fd_sc_hd__tapvpwrvgnd_1
XFILLER_71_473 VPWR VGND VPWR VGND sky130_ef_sc_hd__decap_12
XTAP_TAPCELL_ROW_67_1488 VGND VPWR sky130_fd_sc_hd__tapvpwrvgnd_1
XFILLER_16_389 VPWR VGND VPWR VGND sky130_ef_sc_hd__decap_12
XFILLER_32_849 VPWR VGND VPWR VGND sky130_ef_sc_hd__decap_12
XTAP_TAPCELL_ROW_100_2047 VGND VPWR sky130_fd_sc_hd__tapvpwrvgnd_1
XFILLER_31_337 VPWR VGND VPWR VGND sky130_ef_sc_hd__decap_12
XFILLER_129_225 VPWR VGND VPWR VGND sky130_ef_sc_hd__decap_12
XTAP_TAPCELL_ROW_14_579 VGND VPWR sky130_fd_sc_hd__tapvpwrvgnd_1
XFILLER_8_533 VPWR VGND VPWR VGND sky130_ef_sc_hd__decap_12
XFILLER_40_893 VPWR VGND VPWR VGND sky130_ef_sc_hd__decap_12
XFILLER_145_729 VPWR VGND VPWR VGND sky130_ef_sc_hd__decap_12
XFILLER_138_781 VPWR VGND VPWR VGND sky130_ef_sc_hd__decap_12