* NGSPICE file created from mult.ext - technology: sky130A

* Black-box entry subcircuit for sky130_fd_sc_hd__and2_1 abstract view
.subckt sky130_fd_sc_hd__and2_1 A B VGND VNB VPB VPWR X
.ends

* Black-box entry subcircuit for sky130_fd_sc_hd__tapvpwrvgnd_1 abstract view
.subckt sky130_fd_sc_hd__tapvpwrvgnd_1 VGND VPWR
.ends

* Black-box entry subcircuit for sky130_ef_sc_hd__decap_12 abstract view
.subckt sky130_ef_sc_hd__decap_12 VPWR VGND VPB VNB
.ends

* Black-box entry subcircuit for sky130_fd_sc_hd__nand2_1 abstract view
.subckt sky130_fd_sc_hd__nand2_1 A B VGND VNB VPB VPWR Y
.ends

* Black-box entry subcircuit for sky130_fd_sc_hd__decap_8 abstract view
.subckt sky130_fd_sc_hd__decap_8 VGND VNB VPB VPWR
.ends

* Black-box entry subcircuit for sky130_fd_sc_hd__xnor2_1 abstract view
.subckt sky130_fd_sc_hd__xnor2_1 A B VGND VNB VPB VPWR Y
.ends

* Black-box entry subcircuit for sky130_fd_sc_hd__decap_3 abstract view
.subckt sky130_fd_sc_hd__decap_3 VGND VNB VPB VPWR
.ends

* Black-box entry subcircuit for sky130_fd_sc_hd__and3_1 abstract view
.subckt sky130_fd_sc_hd__and3_1 A B C VGND VNB VPB VPWR X
.ends

* Black-box entry subcircuit for sky130_fd_sc_hd__decap_6 abstract view
.subckt sky130_fd_sc_hd__decap_6 VGND VNB VPB VPWR
.ends

* Black-box entry subcircuit for sky130_fd_sc_hd__or2_1 abstract view
.subckt sky130_fd_sc_hd__or2_1 A B VGND VNB VPB VPWR X
.ends

* Black-box entry subcircuit for sky130_fd_sc_hd__fill_2 abstract view
.subckt sky130_fd_sc_hd__fill_2 VGND VNB VPB VPWR
.ends

* Black-box entry subcircuit for sky130_fd_sc_hd__or3_1 abstract view
.subckt sky130_fd_sc_hd__or3_1 A B C VGND VNB VPB VPWR X
.ends

* Black-box entry subcircuit for sky130_fd_sc_hd__dfrtp_1 abstract view
.subckt sky130_fd_sc_hd__dfrtp_1 CLK D RESET_B VGND VNB VPB VPWR Q
.ends

* Black-box entry subcircuit for sky130_fd_sc_hd__inv_2 abstract view
.subckt sky130_fd_sc_hd__inv_2 A VGND VNB VPB VPWR Y
.ends

* Black-box entry subcircuit for sky130_fd_sc_hd__decap_4 abstract view
.subckt sky130_fd_sc_hd__decap_4 VGND VNB VPB VPWR
.ends

* Black-box entry subcircuit for sky130_fd_sc_hd__buf_2 abstract view
.subckt sky130_fd_sc_hd__buf_2 A VGND VNB VPB VPWR X
.ends

* Black-box entry subcircuit for sky130_fd_sc_hd__a22o_1 abstract view
.subckt sky130_fd_sc_hd__a22o_1 A1 A2 B1 B2 VGND VNB VPB VPWR X
.ends

* Black-box entry subcircuit for sky130_fd_sc_hd__fill_1 abstract view
.subckt sky130_fd_sc_hd__fill_1 VGND VNB VPB VPWR
.ends

* Black-box entry subcircuit for sky130_fd_sc_hd__nor2_1 abstract view
.subckt sky130_fd_sc_hd__nor2_1 A B VGND VNB VPB VPWR Y
.ends

* Black-box entry subcircuit for sky130_fd_sc_hd__clkbuf_16 abstract view
.subckt sky130_fd_sc_hd__clkbuf_16 A VGND VNB VPB VPWR X
.ends

* Black-box entry subcircuit for sky130_fd_sc_hd__o21a_1 abstract view
.subckt sky130_fd_sc_hd__o21a_1 A1 A2 B1 VGND VNB VPB VPWR X
.ends

* Black-box entry subcircuit for sky130_fd_sc_hd__nand2b_1 abstract view
.subckt sky130_fd_sc_hd__nand2b_1 A_N B VGND VNB VPB VPWR Y
.ends

* Black-box entry subcircuit for sky130_fd_sc_hd__o21ai_1 abstract view
.subckt sky130_fd_sc_hd__o21ai_1 A1 A2 B1 VGND VNB VPB VPWR Y
.ends

* Black-box entry subcircuit for sky130_fd_sc_hd__nand4_1 abstract view
.subckt sky130_fd_sc_hd__nand4_1 A B C D VGND VNB VPB VPWR Y
.ends

* Black-box entry subcircuit for sky130_fd_sc_hd__a21boi_2 abstract view
.subckt sky130_fd_sc_hd__a21boi_2 A1 A2 B1_N VGND VNB VPB VPWR Y
.ends

* Black-box entry subcircuit for sky130_fd_sc_hd__o21ba_1 abstract view
.subckt sky130_fd_sc_hd__o21ba_1 A1 A2 B1_N VGND VNB VPB VPWR X
.ends

* Black-box entry subcircuit for sky130_fd_sc_hd__and4_1 abstract view
.subckt sky130_fd_sc_hd__and4_1 A B C D VGND VNB VPB VPWR X
.ends

* Black-box entry subcircuit for sky130_fd_sc_hd__a22oi_1 abstract view
.subckt sky130_fd_sc_hd__a22oi_1 A1 A2 B1 B2 VGND VNB VPB VPWR Y
.ends

* Black-box entry subcircuit for sky130_fd_sc_hd__a21bo_1 abstract view
.subckt sky130_fd_sc_hd__a21bo_1 A1 A2 B1_N VGND VNB VPB VPWR X
.ends

* Black-box entry subcircuit for sky130_fd_sc_hd__o21bai_1 abstract view
.subckt sky130_fd_sc_hd__o21bai_1 A1 A2 B1_N VGND VNB VPB VPWR Y
.ends

* Black-box entry subcircuit for sky130_fd_sc_hd__inv_6 abstract view
.subckt sky130_fd_sc_hd__inv_6 A VGND VNB VPB VPWR Y
.ends

* Black-box entry subcircuit for sky130_fd_sc_hd__o211ai_1 abstract view
.subckt sky130_fd_sc_hd__o211ai_1 A1 A2 B1 C1 VGND VNB VPB VPWR Y
.ends

* Black-box entry subcircuit for sky130_fd_sc_hd__clkinvlp_4 abstract view
.subckt sky130_fd_sc_hd__clkinvlp_4 A VGND VNB VPB VPWR Y
.ends

* Black-box entry subcircuit for sky130_fd_sc_hd__buf_4 abstract view
.subckt sky130_fd_sc_hd__buf_4 A VGND VNB VPB VPWR X
.ends

* Black-box entry subcircuit for sky130_fd_sc_hd__clkbuf_4 abstract view
.subckt sky130_fd_sc_hd__clkbuf_4 A VGND VNB VPB VPWR X
.ends

* Black-box entry subcircuit for sky130_fd_sc_hd__xor2_1 abstract view
.subckt sky130_fd_sc_hd__xor2_1 A B VGND VNB VPB VPWR X
.ends

* Black-box entry subcircuit for sky130_fd_sc_hd__a31o_1 abstract view
.subckt sky130_fd_sc_hd__a31o_1 A1 A2 A3 B1 VGND VNB VPB VPWR X
.ends

* Black-box entry subcircuit for sky130_fd_sc_hd__clkbuf_2 abstract view
.subckt sky130_fd_sc_hd__clkbuf_2 A VGND VNB VPB VPWR X
.ends

* Black-box entry subcircuit for sky130_fd_sc_hd__clkinv_4 abstract view
.subckt sky130_fd_sc_hd__clkinv_4 A VGND VNB VPB VPWR Y
.ends

* Black-box entry subcircuit for sky130_fd_sc_hd__a21oi_1 abstract view
.subckt sky130_fd_sc_hd__a21oi_1 A1 A2 B1 VGND VNB VPB VPWR Y
.ends

* Black-box entry subcircuit for sky130_fd_sc_hd__and2b_1 abstract view
.subckt sky130_fd_sc_hd__and2b_1 A_N B VGND VNB VPB VPWR X
.ends

* Black-box entry subcircuit for sky130_fd_sc_hd__buf_1 abstract view
.subckt sky130_fd_sc_hd__buf_1 A VGND VNB VPB VPWR X
.ends

* Black-box entry subcircuit for sky130_fd_sc_hd__and4bb_1 abstract view
.subckt sky130_fd_sc_hd__and4bb_1 A_N B_N C D VGND VNB VPB VPWR X
.ends

* Black-box entry subcircuit for sky130_fd_sc_hd__bufinv_16 abstract view
.subckt sky130_fd_sc_hd__bufinv_16 A VGND VNB VPB VPWR Y
.ends

* Black-box entry subcircuit for sky130_fd_sc_hd__a41o_1 abstract view
.subckt sky130_fd_sc_hd__a41o_1 A1 A2 A3 A4 B1 VGND VNB VPB VPWR X
.ends

* Black-box entry subcircuit for sky130_fd_sc_hd__clkinv_2 abstract view
.subckt sky130_fd_sc_hd__clkinv_2 A VGND VNB VPB VPWR Y
.ends

* Black-box entry subcircuit for sky130_fd_sc_hd__o2bb2a_1 abstract view
.subckt sky130_fd_sc_hd__o2bb2a_1 A1_N A2_N B1 B2 VGND VNB VPB VPWR X
.ends

* Black-box entry subcircuit for sky130_fd_sc_hd__dlymetal6s2s_1 abstract view
.subckt sky130_fd_sc_hd__dlymetal6s2s_1 A VGND VNB VPB VPWR X
.ends

* Black-box entry subcircuit for sky130_fd_sc_hd__clkbuf_1 abstract view
.subckt sky130_fd_sc_hd__clkbuf_1 A VGND VNB VPB VPWR X
.ends

* Black-box entry subcircuit for sky130_fd_sc_hd__nor3_1 abstract view
.subckt sky130_fd_sc_hd__nor3_1 A B C VGND VNB VPB VPWR Y
.ends

* Black-box entry subcircuit for sky130_fd_sc_hd__a21o_1 abstract view
.subckt sky130_fd_sc_hd__a21o_1 A1 A2 B1 VGND VNB VPB VPWR X
.ends

* Black-box entry subcircuit for sky130_fd_sc_hd__a211oi_1 abstract view
.subckt sky130_fd_sc_hd__a211oi_1 A1 A2 B1 C1 VGND VNB VPB VPWR Y
.ends

* Black-box entry subcircuit for sky130_fd_sc_hd__o211a_1 abstract view
.subckt sky130_fd_sc_hd__o211a_1 A1 A2 B1 C1 VGND VNB VPB VPWR X
.ends

* Black-box entry subcircuit for sky130_fd_sc_hd__dlygate4sd3_1 abstract view
.subckt sky130_fd_sc_hd__dlygate4sd3_1 A VGND VNB VPB VPWR X
.ends

* Black-box entry subcircuit for sky130_fd_sc_hd__and4b_1 abstract view
.subckt sky130_fd_sc_hd__and4b_1 A_N B C D VGND VNB VPB VPWR X
.ends

* Black-box entry subcircuit for sky130_fd_sc_hd__a32o_1 abstract view
.subckt sky130_fd_sc_hd__a32o_1 A1 A2 A3 B1 B2 VGND VNB VPB VPWR X
.ends

* Black-box entry subcircuit for sky130_fd_sc_hd__nand3_1 abstract view
.subckt sky130_fd_sc_hd__nand3_1 A B C VGND VNB VPB VPWR Y
.ends

* Black-box entry subcircuit for sky130_fd_sc_hd__a31oi_1 abstract view
.subckt sky130_fd_sc_hd__a31oi_1 A1 A2 A3 B1 VGND VNB VPB VPWR Y
.ends

* Black-box entry subcircuit for sky130_fd_sc_hd__nand3b_1 abstract view
.subckt sky130_fd_sc_hd__nand3b_1 A_N B C VGND VNB VPB VPWR Y
.ends

.subckt mult VGND VPWR a[0] a[1] a[2] a[3] a[4] a[5] a[6] a[7] b[0] b[1] b[2] b[3]
+ b[4] b[5] b[6] b[7] clk product[0] product[10] product[11] product[12] product[13]
+ product[14] product[15] product[1] product[2] product[3] product[4] product[5] product[6]
+ product[7] product[8] product[9] rst
X_432_ _166_ _167_ VGND VGND VPWR VPWR _169_ sky130_fd_sc_hd__and2_1
XTAP_TAPCELL_ROW_15_128 VGND VPWR sky130_fd_sc_hd__tapvpwrvgnd_1
XFILLER_13_155 VPWR VGND VPWR VGND sky130_ef_sc_hd__decap_12
XFILLER_13_100 VPWR VGND VPWR VGND sky130_ef_sc_hd__decap_12
X_501_ a_low\[1\] net40 VGND VGND VPWR VPWR _231_ sky130_fd_sc_hd__nand2_1
XFILLER_9_159 VGND VGND VPWR VPWR sky130_fd_sc_hd__decap_8
X_415_ _145_ _152_ VGND VGND VPWR VPWR _154_ sky130_fd_sc_hd__xnor2_1
XFILLER_0_57 VGND VGND VPWR VPWR sky130_fd_sc_hd__decap_3
X_680_ net47 net41 _353_ VGND VGND VPWR VPWR _373_ sky130_fd_sc_hd__and3_1
XFILLER_18_64 VGND VGND VPWR VPWR sky130_fd_sc_hd__decap_8
XFILLER_29_106 VGND VGND VPWR VPWR sky130_fd_sc_hd__decap_6
X_594_ middle_sum\[7\] pp3\[3\] VGND VGND VPWR VPWR _304_ sky130_fd_sc_hd__or2_1
XFILLER_29_74 VGND VGND VPWR VPWR sky130_fd_sc_hd__decap_8
XFILLER_28_194 VGND VGND VPWR VPWR sky130_fd_sc_hd__fill_2
X_663_ _337_ _340_ _356_ VGND VGND VPWR VPWR _358_ sky130_fd_sc_hd__or3_1
X_801_ clknet_3_0__leaf_clk _050_ _089_ VGND VGND VPWR VPWR pp1\[5\] sky130_fd_sc_hd__dfrtp_1
X_732_ net63 VGND VGND VPWR VPWR _092_ sky130_fd_sc_hd__inv_2
XFILLER_34_197 VPWR VGND VPWR VGND sky130_ef_sc_hd__decap_12
XFILLER_34_153 VGND VGND VPWR VPWR sky130_fd_sc_hd__decap_4
XFILLER_25_175 VPWR VGND VPWR VGND sky130_ef_sc_hd__decap_12
Xoutput20 net20 VGND VGND VPWR VPWR product[11] sky130_fd_sc_hd__buf_2
X_715_ net64 VGND VGND VPWR VPWR _075_ sky130_fd_sc_hd__inv_2
X_577_ middle_sum\[4\] pp3\[0\] VGND VGND VPWR VPWR _290_ sky130_fd_sc_hd__nand2_1
X_646_ net48 net45 _338_ _339_ VGND VGND VPWR VPWR _342_ sky130_fd_sc_hd__a22o_1
Xoutput31 net31 VGND VGND VPWR VPWR product[7] sky130_fd_sc_hd__buf_2
XFILLER_16_197 VGND VGND VPWR VPWR sky130_fd_sc_hd__decap_8
XFILLER_16_153 VGND VGND VPWR VPWR sky130_fd_sc_hd__fill_2
XFILLER_16_120 VGND VGND VPWR VPWR sky130_fd_sc_hd__fill_2
XFILLER_22_178 VGND VGND VPWR VPWR sky130_fd_sc_hd__fill_1
X_431_ _166_ _167_ VGND VGND VPWR VPWR _168_ sky130_fd_sc_hd__nor2_1
Xclkbuf_3_6__f_clk clknet_0_clk VGND VGND VPWR VPWR clknet_3_6__leaf_clk sky130_fd_sc_hd__clkbuf_16
XTAP_TAPCELL_ROW_15_129 VGND VPWR sky130_fd_sc_hd__tapvpwrvgnd_1
XFILLER_13_189 VGND VGND VPWR VPWR sky130_fd_sc_hd__decap_6
XFILLER_13_167 VGND VGND VPWR VPWR sky130_fd_sc_hd__fill_1
XFILLER_3_57 VPWR VGND VPWR VGND sky130_ef_sc_hd__decap_12
X_500_ _225_ _227_ _229_ VGND VGND VPWR VPWR _230_ sky130_fd_sc_hd__o21a_1
X_629_ _325_ _326_ VGND VGND VPWR VPWR _012_ sky130_fd_sc_hd__nor2_1
XFILLER_12_11 VGND VGND VPWR VPWR sky130_fd_sc_hd__fill_1
XFILLER_10_115 VPWR VGND VPWR VGND sky130_ef_sc_hd__decap_12
X_414_ _145_ _152_ VGND VGND VPWR VPWR _153_ sky130_fd_sc_hd__nand2b_1
XPHY_EDGE_ROW_21_Right_21 VGND VGND VPWR VPWR sky130_fd_sc_hd__decap_3
XPHY_EDGE_ROW_12_Right_12 VGND VGND VPWR VPWR sky130_fd_sc_hd__decap_3
XPHY_EDGE_ROW_30_Right_30 VGND VGND VPWR VPWR sky130_fd_sc_hd__decap_3
XFILLER_2_177 VPWR VGND VPWR VGND sky130_ef_sc_hd__decap_12
XFILLER_34_64 VGND VGND VPWR VPWR sky130_fd_sc_hd__decap_8
XFILLER_29_118 VGND VGND VPWR VPWR sky130_fd_sc_hd__fill_2
XPHY_EDGE_ROW_28_Left_64 VGND VGND VPWR VPWR sky130_fd_sc_hd__decap_3
XPHY_EDGE_ROW_12_Left_48 VGND VGND VPWR VPWR sky130_fd_sc_hd__decap_3
X_731_ net60 VGND VGND VPWR VPWR _091_ sky130_fd_sc_hd__inv_2
X_662_ _337_ _340_ _356_ VGND VGND VPWR VPWR _357_ sky130_fd_sc_hd__o21ai_1
X_800_ clknet_3_4__leaf_clk _049_ _088_ VGND VGND VPWR VPWR pp1\[4\] sky130_fd_sc_hd__dfrtp_1
XFILLER_20_99 VGND VGND VPWR VPWR sky130_fd_sc_hd__decap_3
XFILLER_20_66 VGND VGND VPWR VPWR sky130_fd_sc_hd__decap_6
X_593_ middle_sum\[7\] pp3\[3\] VGND VGND VPWR VPWR _303_ sky130_fd_sc_hd__nand2_1
XFILLER_19_140 VGND VGND VPWR VPWR sky130_fd_sc_hd__fill_1
XFILLER_25_187 VPWR VGND VPWR VGND sky130_ef_sc_hd__decap_12
XPHY_EDGE_ROW_6_Right_6 VGND VGND VPWR VPWR sky130_fd_sc_hd__decap_3
XFILLER_31_113 VPWR VGND VPWR VGND sky130_ef_sc_hd__decap_12
XFILLER_31_87 VGND VGND VPWR VPWR sky130_fd_sc_hd__fill_1
Xoutput21 net21 VGND VGND VPWR VPWR product[12] sky130_fd_sc_hd__buf_2
X_714_ net64 VGND VGND VPWR VPWR _074_ sky130_fd_sc_hd__inv_2
Xoutput32 net32 VGND VGND VPWR VPWR product[8] sky130_fd_sc_hd__buf_2
X_645_ net48 net45 _338_ _339_ VGND VGND VPWR VPWR _341_ sky130_fd_sc_hd__nand4_1
XTAP_TAPCELL_ROW_18_138 VGND VPWR sky130_fd_sc_hd__tapvpwrvgnd_1
X_576_ _286_ _288_ _285_ VGND VGND VPWR VPWR _289_ sky130_fd_sc_hd__a21boi_2
XFILLER_22_124 VGND VGND VPWR VPWR sky130_fd_sc_hd__fill_1
X_430_ _156_ _160_ _161_ VGND VGND VPWR VPWR _167_ sky130_fd_sc_hd__o21ba_1
XPHY_EDGE_ROW_15_Left_51 VGND VGND VPWR VPWR sky130_fd_sc_hd__decap_3
X_559_ _275_ _276_ VGND VGND VPWR VPWR _007_ sky130_fd_sc_hd__xnor2_1
X_628_ net50 net52 net44 net46 VGND VGND VPWR VPWR _326_ sky130_fd_sc_hd__and4_1
XFILLER_3_69 VGND VGND VPWR VPWR sky130_fd_sc_hd__decap_8
XFILLER_10_127 VPWR VGND VPWR VGND sky130_ef_sc_hd__decap_12
XPHY_EDGE_ROW_0_Left_36 VGND VGND VPWR VPWR sky130_fd_sc_hd__decap_3
XFILLER_5_6 VPWR VGND VPWR VGND sky130_ef_sc_hd__decap_12
X_413_ _150_ _151_ VGND VGND VPWR VPWR _152_ sky130_fd_sc_hd__and2_1
XFILLER_5_120 VPWR VGND VPWR VGND sky130_ef_sc_hd__decap_12
XFILLER_23_99 VPWR VGND VPWR VGND sky130_ef_sc_hd__decap_12
XFILLER_2_123 VGND VGND VPWR VPWR sky130_fd_sc_hd__fill_1
XFILLER_0_15 VPWR VGND VPWR VGND sky130_ef_sc_hd__decap_12
XFILLER_2_189 VGND VGND VPWR VPWR sky130_fd_sc_hd__decap_6
XFILLER_3_3 VGND VGND VPWR VPWR sky130_fd_sc_hd__decap_8
XFILLER_9_57 VGND VGND VPWR VPWR sky130_fd_sc_hd__decap_8
XFILLER_34_32 VGND VGND VPWR VPWR sky130_fd_sc_hd__decap_8
XFILLER_18_88 VGND VGND VPWR VPWR sky130_fd_sc_hd__fill_2
XFILLER_18_44 VGND VGND VPWR VPWR sky130_fd_sc_hd__decap_8
XFILLER_22_9 VGND VGND VPWR VPWR sky130_fd_sc_hd__fill_1
XFILLER_20_45 VGND VGND VPWR VPWR sky130_fd_sc_hd__decap_8
XFILLER_29_43 VGND VGND VPWR VPWR sky130_fd_sc_hd__fill_2
XFILLER_28_130 VGND VGND VPWR VPWR sky130_fd_sc_hd__decap_6
X_592_ _300_ _302_ VGND VGND VPWR VPWR _020_ sky130_fd_sc_hd__xnor2_1
X_730_ net61 VGND VGND VPWR VPWR _090_ sky130_fd_sc_hd__inv_2
X_661_ _351_ _354_ VGND VGND VPWR VPWR _356_ sky130_fd_sc_hd__xnor2_1
XFILLER_34_144 VGND VGND VPWR VPWR sky130_fd_sc_hd__fill_1
Xoutput22 net22 VGND VGND VPWR VPWR product[13] sky130_fd_sc_hd__buf_2
XFILLER_31_99 VPWR VGND VPWR VGND sky130_ef_sc_hd__decap_12
Xoutput33 net33 VGND VGND VPWR VPWR product[9] sky130_fd_sc_hd__buf_2
XFILLER_25_199 VPWR VGND VPWR VGND sky130_ef_sc_hd__decap_12
X_713_ net64 VGND VGND VPWR VPWR _073_ sky130_fd_sc_hd__inv_2
X_644_ net48 net45 _338_ _339_ VGND VGND VPWR VPWR _340_ sky130_fd_sc_hd__and4_1
XTAP_TAPCELL_ROW_18_139 VGND VPWR sky130_fd_sc_hd__tapvpwrvgnd_1
X_575_ _287_ _288_ VGND VGND VPWR VPWR _028_ sky130_fd_sc_hd__xnor2_1
XFILLER_16_144 VGND VGND VPWR VPWR sky130_fd_sc_hd__fill_1
XFILLER_16_133 VGND VGND VPWR VPWR sky130_fd_sc_hd__fill_2
XFILLER_15_67 VGND VGND VPWR VPWR sky130_fd_sc_hd__fill_1
XFILLER_31_169 VGND VGND VPWR VPWR sky130_fd_sc_hd__fill_2
XFILLER_31_125 VGND VGND VPWR VPWR sky130_fd_sc_hd__decap_6
XFILLER_26_77 VGND VGND VPWR VPWR sky130_fd_sc_hd__decap_6
XFILLER_22_169 VGND VGND VPWR VPWR sky130_fd_sc_hd__fill_1
XTAP_TAPCELL_ROW_9_107 VGND VPWR sky130_fd_sc_hd__tapvpwrvgnd_1
X_558_ pp2\[7\] pp1\[7\] VGND VGND VPWR VPWR _276_ sky130_fd_sc_hd__xnor2_1
X_627_ net52 net44 net46 net50 VGND VGND VPWR VPWR _325_ sky130_fd_sc_hd__a22oi_1
XFILLER_3_15 VPWR VGND VPWR VGND sky130_ef_sc_hd__decap_12
X_489_ net53 net42 _217_ VGND VGND VPWR VPWR _219_ sky130_fd_sc_hd__and3_1
XFILLER_8_195 VGND VGND VPWR VPWR sky130_fd_sc_hd__fill_1
XTAP_TAPCELL_ROW_20_145 VGND VPWR sky130_fd_sc_hd__tapvpwrvgnd_1
XFILLER_10_139 VGND VGND VPWR VPWR sky130_fd_sc_hd__fill_1
X_412_ _125_ _129_ _149_ VGND VGND VPWR VPWR _151_ sky130_fd_sc_hd__or3_1
XFILLER_5_132 VPWR VGND VPWR VGND sky130_ef_sc_hd__decap_12
XFILLER_23_34 VGND VGND VPWR VPWR sky130_fd_sc_hd__decap_8
XFILLER_0_27 VGND VGND VPWR VPWR sky130_fd_sc_hd__fill_1
XFILLER_28_197 VGND VGND VPWR VPWR sky130_fd_sc_hd__decap_8
XFILLER_28_186 VGND VGND VPWR VPWR sky130_fd_sc_hd__decap_8
X_591_ _295_ _301_ VGND VGND VPWR VPWR _302_ sky130_fd_sc_hd__and2_1
X_660_ net47 net45 _354_ VGND VGND VPWR VPWR _355_ sky130_fd_sc_hd__and3_1
X_789_ clknet_3_0__leaf_clk _009_ _077_ VGND VGND VPWR VPWR pp0\[1\] sky130_fd_sc_hd__dfrtp_1
Xoutput23 net23 VGND VGND VPWR VPWR product[14] sky130_fd_sc_hd__buf_2
XFILLER_31_34 VPWR VGND VPWR VGND sky130_ef_sc_hd__decap_12
X_712_ net65 VGND VGND VPWR VPWR _072_ sky130_fd_sc_hd__inv_2
XFILLER_15_57 VGND VGND VPWR VPWR sky130_fd_sc_hd__fill_2
XFILLER_31_159 VGND VGND VPWR VPWR sky130_fd_sc_hd__decap_3
X_643_ net52 net41 net43 net50 VGND VGND VPWR VPWR _339_ sky130_fd_sc_hd__a22o_1
XFILLER_16_178 VGND VGND VPWR VPWR sky130_fd_sc_hd__decap_6
X_574_ _282_ _284_ _281_ VGND VGND VPWR VPWR _288_ sky130_fd_sc_hd__a21bo_1
XTAP_TAPCELL_ROW_32_187 VGND VPWR sky130_fd_sc_hd__tapvpwrvgnd_1
XTAP_TAPCELL_ROW_9_108 VGND VPWR sky130_fd_sc_hd__tapvpwrvgnd_1
X_557_ _272_ _274_ _271_ VGND VGND VPWR VPWR _275_ sky130_fd_sc_hd__o21bai_1
XFILLER_21_192 VGND VGND VPWR VPWR sky130_fd_sc_hd__decap_3
X_626_ _319_ _324_ VGND VGND VPWR VPWR _032_ sky130_fd_sc_hd__nor2_1
XFILLER_3_27 VPWR VGND VPWR VGND sky130_ef_sc_hd__decap_12
X_488_ net55 net53 net42 net44 VGND VGND VPWR VPWR _218_ sky130_fd_sc_hd__and4_1
XFILLER_9_119 VGND VGND VPWR VPWR sky130_fd_sc_hd__fill_1
XTAP_TAPCELL_ROW_20_146 VGND VPWR sky130_fd_sc_hd__tapvpwrvgnd_1
XFILLER_10_107 VGND VGND VPWR VPWR sky130_fd_sc_hd__decap_3
X_411_ _125_ _129_ _149_ VGND VGND VPWR VPWR _150_ sky130_fd_sc_hd__o21ai_1
XFILLER_5_111 VGND VGND VPWR VPWR sky130_fd_sc_hd__fill_1
XFILLER_5_144 VPWR VGND VPWR VGND sky130_ef_sc_hd__decap_12
XFILLER_32_210 VGND VGND VPWR VPWR sky130_fd_sc_hd__fill_1
X_609_ net58 net44 VGND VGND VPWR VPWR _313_ sky130_fd_sc_hd__nand2_1
XFILLER_23_57 VGND VGND VPWR VPWR sky130_fd_sc_hd__decap_6
XFILLER_20_213 VGND VGND VPWR VPWR sky130_fd_sc_hd__fill_2
XFILLER_11_213 VGND VGND VPWR VPWR sky130_fd_sc_hd__fill_2
Xclkload0 clknet_3_0__leaf_clk VGND VGND VPWR VPWR clkload0/Y sky130_fd_sc_hd__inv_6
XFILLER_1_60 VGND VGND VPWR VPWR sky130_fd_sc_hd__decap_6
XFILLER_29_23 VPWR VGND VPWR VGND sky130_ef_sc_hd__decap_12
X_590_ _289_ _293_ _294_ _290_ VGND VGND VPWR VPWR _301_ sky130_fd_sc_hd__o211ai_1
XFILLER_4_209 VGND VGND VPWR VPWR sky130_fd_sc_hd__decap_6
XFILLER_34_157 VGND VGND VPWR VPWR sky130_fd_sc_hd__fill_1
XFILLER_10_91 VGND VGND VPWR VPWR sky130_fd_sc_hd__decap_8
X_788_ clknet_3_1__leaf_clk _008_ _076_ VGND VGND VPWR VPWR pp0\[0\] sky130_fd_sc_hd__dfrtp_1
Xoutput24 net24 VGND VGND VPWR VPWR product[15] sky130_fd_sc_hd__buf_2
XFILLER_31_57 VGND VGND VPWR VPWR sky130_fd_sc_hd__fill_1
XFILLER_31_46 VGND VGND VPWR VPWR sky130_fd_sc_hd__decap_6
XPHY_EDGE_ROW_28_Right_28 VGND VGND VPWR VPWR sky130_fd_sc_hd__decap_3
XPHY_EDGE_ROW_19_Right_19 VGND VGND VPWR VPWR sky130_fd_sc_hd__decap_3
X_711_ net65 VGND VGND VPWR VPWR _071_ sky130_fd_sc_hd__inv_2
X_642_ net50 net52 net41 net43 VGND VGND VPWR VPWR _338_ sky130_fd_sc_hd__nand4_1
X_573_ _285_ _286_ VGND VGND VPWR VPWR _287_ sky130_fd_sc_hd__nand2_1
Xclkbuf_3_1__f_clk clknet_0_clk VGND VGND VPWR VPWR clknet_3_1__leaf_clk sky130_fd_sc_hd__clkbuf_16
XTAP_TAPCELL_ROW_32_188 VGND VPWR sky130_fd_sc_hd__tapvpwrvgnd_1
XFILLER_22_138 VGND VGND VPWR VPWR sky130_fd_sc_hd__fill_2
XFILLER_7_70 VGND VGND VPWR VPWR sky130_fd_sc_hd__fill_2
XTAP_TAPCELL_ROW_9_109 VGND VPWR sky130_fd_sc_hd__tapvpwrvgnd_1
XFILLER_13_116 VPWR VGND VPWR VGND sky130_ef_sc_hd__decap_12
XFILLER_3_39 VPWR VGND VPWR VGND sky130_ef_sc_hd__decap_12
X_625_ _316_ _318_ VGND VGND VPWR VPWR _324_ sky130_fd_sc_hd__nor2_1
X_556_ _273_ _274_ VGND VGND VPWR VPWR _006_ sky130_fd_sc_hd__xnor2_1
XPHY_EDGE_ROW_19_Left_55 VGND VGND VPWR VPWR sky130_fd_sc_hd__decap_3
X_487_ net55 net44 VGND VGND VPWR VPWR _217_ sky130_fd_sc_hd__nand2_1
X_410_ _127_ _147_ _146_ VGND VGND VPWR VPWR _149_ sky130_fd_sc_hd__o21a_1
XTAP_TAPCELL_ROW_20_147 VGND VPWR sky130_fd_sc_hd__tapvpwrvgnd_1
XFILLER_12_15 VPWR VGND VPWR VGND sky130_ef_sc_hd__decap_12
X_539_ _259_ _260_ VGND VGND VPWR VPWR _261_ sky130_fd_sc_hd__nor2_1
XTAP_TAPCELL_ROW_11_114 VGND VPWR sky130_fd_sc_hd__tapvpwrvgnd_1
XFILLER_5_156 VPWR VGND VPWR VGND sky130_ef_sc_hd__decap_12
X_608_ _280_ _312_ VGND VGND VPWR VPWR _019_ sky130_fd_sc_hd__and2_1
XFILLER_0_29 VGND VGND VPWR VPWR sky130_fd_sc_hd__fill_2
XTAP_TAPCELL_ROW_0_72 VGND VPWR sky130_fd_sc_hd__tapvpwrvgnd_1
XFILLER_1_3 VPWR VGND VPWR VGND sky130_ef_sc_hd__decap_12
Xclkload1 clknet_3_1__leaf_clk VGND VGND VPWR VPWR clkload1/Y sky130_fd_sc_hd__clkinvlp_4
XFILLER_34_3 VPWR VGND VPWR VGND sky130_ef_sc_hd__decap_12
XFILLER_29_35 VGND VGND VPWR VPWR sky130_fd_sc_hd__decap_8
X_787_ clknet_3_7__leaf_clk _007_ _075_ VGND VGND VPWR VPWR middle_sum\[7\] sky130_fd_sc_hd__dfrtp_1
XFILLER_19_111 VGND VGND VPWR VPWR sky130_fd_sc_hd__fill_1
XFILLER_20_9 VGND VGND VPWR VPWR sky130_fd_sc_hd__fill_1
XPHY_EDGE_ROW_7_Left_43 VGND VGND VPWR VPWR sky130_fd_sc_hd__decap_3
XFILLER_25_169 VGND VGND VPWR VPWR sky130_fd_sc_hd__fill_1
XFILLER_25_125 VPWR VGND VPWR VGND sky130_ef_sc_hd__decap_12
XFILLER_15_15 VPWR VGND VPWR VGND sky130_ef_sc_hd__decap_12
XPHY_EDGE_ROW_33_Left_69 VGND VGND VPWR VPWR sky130_fd_sc_hd__decap_3
X_641_ net50 net52 net40 net43 VGND VGND VPWR VPWR _337_ sky130_fd_sc_hd__and4_1
X_572_ middle_sum\[3\] pp0\[7\] VGND VGND VPWR VPWR _286_ sky130_fd_sc_hd__or2_1
XFILLER_16_125 VGND VGND VPWR VPWR sky130_fd_sc_hd__decap_8
X_710_ net67 VGND VGND VPWR VPWR _070_ sky130_fd_sc_hd__inv_2
Xoutput25 net25 VGND VGND VPWR VPWR product[1] sky130_fd_sc_hd__buf_2
XTAP_TAPCELL_ROW_32_189 VGND VPWR sky130_fd_sc_hd__tapvpwrvgnd_1
XFILLER_22_128 VGND VGND VPWR VPWR sky130_fd_sc_hd__fill_2
XFILLER_15_191 VPWR VGND VPWR VGND sky130_ef_sc_hd__decap_12
XTAP_TAPCELL_ROW_23_156 VGND VPWR sky130_fd_sc_hd__tapvpwrvgnd_1
XFILLER_21_172 VPWR VGND VPWR VGND sky130_ef_sc_hd__decap_12
XFILLER_13_128 VGND VGND VPWR VPWR sky130_fd_sc_hd__decap_4
X_555_ _268_ _270_ _267_ VGND VGND VPWR VPWR _274_ sky130_fd_sc_hd__o21ba_1
X_486_ _215_ _216_ VGND VGND VPWR VPWR _051_ sky130_fd_sc_hd__nor2_1
XFILLER_12_194 VGND VGND VPWR VPWR sky130_fd_sc_hd__fill_2
XFILLER_12_161 VPWR VGND VPWR VGND sky130_ef_sc_hd__decap_12
XFILLER_8_132 VGND VGND VPWR VPWR sky130_fd_sc_hd__decap_8
X_624_ _223_ _250_ VGND VGND VPWR VPWR _035_ sky130_fd_sc_hd__xnor2_1
XTAP_TAPCELL_ROW_20_148 VGND VPWR sky130_fd_sc_hd__tapvpwrvgnd_1
XFILLER_18_209 VGND VGND VPWR VPWR sky130_fd_sc_hd__decap_6
XFILLER_12_27 VGND VGND VPWR VPWR sky130_fd_sc_hd__fill_1
X_538_ pp2\[3\] pp1\[3\] VGND VGND VPWR VPWR _260_ sky130_fd_sc_hd__nor2_1
XPHY_EDGE_ROW_20_Left_56 VGND VGND VPWR VPWR sky130_fd_sc_hd__decap_3
XTAP_TAPCELL_ROW_11_115 VGND VPWR sky130_fd_sc_hd__tapvpwrvgnd_1
X_607_ middle_sum\[0\] pp0\[4\] VGND VGND VPWR VPWR _312_ sky130_fd_sc_hd__or2_1
XFILLER_23_15 VGND VGND VPWR VPWR sky130_fd_sc_hd__decap_4
X_469_ _200_ _201_ VGND VGND VPWR VPWR _202_ sky130_fd_sc_hd__nand2_1
Xfanout60 net61 VGND VGND VPWR VPWR net60 sky130_fd_sc_hd__buf_4
XFILLER_2_138 VGND VGND VPWR VPWR sky130_fd_sc_hd__fill_2
XTAP_TAPCELL_ROW_0_73 VGND VPWR sky130_fd_sc_hd__tapvpwrvgnd_1
XFILLER_18_15 VGND VGND VPWR VPWR sky130_fd_sc_hd__decap_4
Xclkload2 clknet_3_2__leaf_clk VGND VGND VPWR VPWR clkload2/X sky130_fd_sc_hd__clkbuf_4
XFILLER_27_3 VPWR VGND VPWR VGND sky130_ef_sc_hd__decap_12
XFILLER_28_101 VPWR VGND VPWR VGND sky130_ef_sc_hd__decap_12
X_786_ clknet_3_7__leaf_clk _006_ _074_ VGND VGND VPWR VPWR middle_sum\[6\] sky130_fd_sc_hd__dfrtp_1
XFILLER_19_156 VPWR VGND VPWR VGND sky130_ef_sc_hd__decap_12
XFILLER_10_82 VGND VGND VPWR VPWR sky130_fd_sc_hd__fill_2
XFILLER_10_60 VPWR VGND VPWR VGND sky130_ef_sc_hd__decap_12
XFILLER_6_29 VPWR VGND VPWR VGND sky130_ef_sc_hd__decap_12
XFILLER_25_137 VGND VGND VPWR VPWR sky130_fd_sc_hd__decap_8
XFILLER_15_27 VPWR VGND VPWR VGND sky130_ef_sc_hd__decap_12
XTAP_TAPCELL_ROW_35_198 VGND VPWR sky130_fd_sc_hd__tapvpwrvgnd_1
X_640_ net50 net40 VGND VGND VPWR VPWR _336_ sky130_fd_sc_hd__nand2_1
X_571_ middle_sum\[3\] pp0\[7\] VGND VGND VPWR VPWR _285_ sky130_fd_sc_hd__nand2_1
XPHY_EDGE_ROW_1_Right_1 VGND VGND VPWR VPWR sky130_fd_sc_hd__decap_3
Xoutput26 net26 VGND VGND VPWR VPWR product[2] sky130_fd_sc_hd__buf_2
XFILLER_30_195 VGND VGND VPWR VPWR sky130_fd_sc_hd__fill_1
XFILLER_22_118 VGND VGND VPWR VPWR sky130_fd_sc_hd__decap_6
XFILLER_21_92 VPWR VGND VPWR VGND sky130_ef_sc_hd__decap_12
XFILLER_11_6 VGND VGND VPWR VPWR sky130_fd_sc_hd__fill_1
X_769_ clknet_3_2__leaf_clk _026_ _057_ VGND VGND VPWR VPWR net29 sky130_fd_sc_hd__dfrtp_1
XFILLER_26_15 VPWR VGND VPWR VGND sky130_ef_sc_hd__decap_12
XTAP_TAPCELL_ROW_23_157 VGND VPWR sky130_fd_sc_hd__tapvpwrvgnd_1
XFILLER_21_184 VGND VGND VPWR VPWR sky130_fd_sc_hd__decap_8
X_554_ _271_ _272_ VGND VGND VPWR VPWR _273_ sky130_fd_sc_hd__nor2_1
X_485_ _213_ _214_ VGND VGND VPWR VPWR _216_ sky130_fd_sc_hd__and2_1
XTAP_TAPCELL_ROW_14_124 VGND VPWR sky130_fd_sc_hd__tapvpwrvgnd_1
XFILLER_12_184 VGND VGND VPWR VPWR sky130_fd_sc_hd__decap_3
X_623_ _322_ _323_ VGND VGND VPWR VPWR _034_ sky130_fd_sc_hd__xnor2_1
XFILLER_26_210 VGND VGND VPWR VPWR sky130_fd_sc_hd__fill_1
XTAP_TAPCELL_ROW_11_116 VGND VPWR sky130_fd_sc_hd__tapvpwrvgnd_1
XFILLER_5_169 VPWR VGND VPWR VGND sky130_ef_sc_hd__decap_12
X_606_ net72 _310_ VGND VGND VPWR VPWR _025_ sky130_fd_sc_hd__xor2_1
X_399_ _133_ _135_ VGND VGND VPWR VPWR _140_ sky130_fd_sc_hd__xnor2_1
X_537_ pp2\[3\] pp1\[3\] VGND VGND VPWR VPWR _259_ sky130_fd_sc_hd__and2_1
X_468_ net34 a_low\[0\] _188_ _187_ VGND VGND VPWR VPWR _201_ sky130_fd_sc_hd__a31o_1
XFILLER_9_18 VPWR VGND VPWR VGND sky130_ef_sc_hd__decap_12
Xfanout50 a_high\[1\] VGND VGND VPWR VPWR net50 sky130_fd_sc_hd__clkbuf_2
Xclkbuf_3_7__f_clk clknet_0_clk VGND VGND VPWR VPWR clknet_3_7__leaf_clk sky130_fd_sc_hd__clkbuf_16
XFILLER_20_205 VGND VGND VPWR VPWR sky130_fd_sc_hd__fill_2
XTAP_TAPCELL_ROW_0_74 VGND VPWR sky130_fd_sc_hd__tapvpwrvgnd_1
Xfanout61 net17 VGND VGND VPWR VPWR net61 sky130_fd_sc_hd__clkbuf_4
XFILLER_34_15 VPWR VGND VPWR VGND sky130_ef_sc_hd__decap_12
Xclkload3 clknet_3_3__leaf_clk VGND VGND VPWR VPWR clkload3/Y sky130_fd_sc_hd__clkinv_4
XFILLER_11_205 VGND VGND VPWR VPWR sky130_fd_sc_hd__decap_8
XFILLER_28_113 VGND VGND VPWR VPWR sky130_fd_sc_hd__fill_2
XFILLER_19_113 VGND VGND VPWR VPWR sky130_fd_sc_hd__decap_4
XFILLER_10_72 VGND VGND VPWR VPWR sky130_fd_sc_hd__decap_3
XFILLER_27_190 VGND VGND VPWR VPWR sky130_fd_sc_hd__decap_4
XFILLER_25_105 VGND VGND VPWR VPWR sky130_fd_sc_hd__fill_2
X_785_ clknet_3_6__leaf_clk _005_ _073_ VGND VGND VPWR VPWR middle_sum\[5\] sky130_fd_sc_hd__dfrtp_1
XTAP_TAPCELL_ROW_35_199 VGND VPWR sky130_fd_sc_hd__tapvpwrvgnd_1
X_570_ _283_ _284_ VGND VGND VPWR VPWR _027_ sky130_fd_sc_hd__xnor2_1
Xoutput27 net27 VGND VGND VPWR VPWR product[3] sky130_fd_sc_hd__buf_2
XTAP_TAPCELL_ROW_26_166 VGND VPWR sky130_fd_sc_hd__tapvpwrvgnd_1
X_699_ net62 VGND VGND VPWR VPWR _059_ sky130_fd_sc_hd__inv_2
Xclkbuf_0_clk clk VGND VGND VPWR VPWR clknet_0_clk sky130_fd_sc_hd__clkbuf_16
X_768_ clknet_3_2__leaf_clk _019_ _056_ VGND VGND VPWR VPWR net28 sky130_fd_sc_hd__dfrtp_1
XFILLER_30_141 VPWR VGND VPWR VGND sky130_ef_sc_hd__decap_12
XFILLER_26_27 VGND VGND VPWR VPWR sky130_fd_sc_hd__fill_1
XPHY_EDGE_ROW_24_Right_24 VGND VGND VPWR VPWR sky130_fd_sc_hd__decap_3
XTAP_TAPCELL_ROW_23_158 VGND VPWR sky130_fd_sc_hd__tapvpwrvgnd_1
XPHY_EDGE_ROW_15_Right_15 VGND VGND VPWR VPWR sky130_fd_sc_hd__decap_3
XFILLER_7_40 VGND VGND VPWR VPWR sky130_fd_sc_hd__decap_8
XPHY_EDGE_ROW_33_Right_33 VGND VGND VPWR VPWR sky130_fd_sc_hd__decap_3
X_553_ pp2\[6\] pp1\[6\] VGND VGND VPWR VPWR _272_ sky130_fd_sc_hd__nor2_1
XFILLER_16_82 VGND VGND VPWR VPWR sky130_fd_sc_hd__fill_2
X_484_ _213_ _214_ VGND VGND VPWR VPWR _215_ sky130_fd_sc_hd__nor2_1
XTAP_TAPCELL_ROW_14_125 VGND VPWR sky130_fd_sc_hd__tapvpwrvgnd_1
X_622_ _319_ _321_ _249_ VGND VGND VPWR VPWR _323_ sky130_fd_sc_hd__a21oi_1
XFILLER_12_29 VGND VGND VPWR VPWR sky130_fd_sc_hd__fill_2
X_605_ _310_ _311_ VGND VGND VPWR VPWR _024_ sky130_fd_sc_hd__and2b_1
X_398_ _124_ _138_ VGND VGND VPWR VPWR _139_ sky130_fd_sc_hd__xnor2_1
XFILLER_27_70 VGND VGND VPWR VPWR sky130_fd_sc_hd__fill_1
X_536_ _257_ _258_ VGND VGND VPWR VPWR _002_ sky130_fd_sc_hd__xnor2_1
X_467_ _192_ _198_ VGND VGND VPWR VPWR _200_ sky130_fd_sc_hd__xnor2_1
XFILLER_4_41 VPWR VGND VPWR VGND sky130_ef_sc_hd__decap_12
XFILLER_4_85 VGND VGND VPWR VPWR sky130_fd_sc_hd__decap_3
XFILLER_23_28 VGND VGND VPWR VPWR sky130_fd_sc_hd__decap_3
Xfanout51 a_high\[1\] VGND VGND VPWR VPWR net51 sky130_fd_sc_hd__buf_1
XFILLER_13_50 VGND VGND VPWR VPWR sky130_fd_sc_hd__fill_1
XTAP_TAPCELL_ROW_0_75 VGND VPWR sky130_fd_sc_hd__tapvpwrvgnd_1
Xfanout62 net67 VGND VGND VPWR VPWR net62 sky130_fd_sc_hd__buf_4
Xfanout40 b_low\[3\] VGND VGND VPWR VPWR net40 sky130_fd_sc_hd__buf_2
XFILLER_34_27 VGND VGND VPWR VPWR sky130_fd_sc_hd__fill_1
X_519_ _237_ _248_ VGND VGND VPWR VPWR _249_ sky130_fd_sc_hd__and2_1
XFILLER_24_82 VGND VGND VPWR VPWR sky130_fd_sc_hd__fill_2
Xclkload4 clknet_3_4__leaf_clk VGND VGND VPWR VPWR clkload4/Y sky130_fd_sc_hd__clkinv_4
XFILLER_28_136 VGND VGND VPWR VPWR sky130_fd_sc_hd__fill_1
XFILLER_3_213 VGND VGND VPWR VPWR sky130_fd_sc_hd__fill_2
XFILLER_35_81 VGND VGND VPWR VPWR sky130_fd_sc_hd__decap_3
X_784_ clknet_3_6__leaf_clk _004_ _072_ VGND VGND VPWR VPWR middle_sum\[4\] sky130_fd_sc_hd__dfrtp_1
XFILLER_19_169 VPWR VGND VPWR VGND sky130_ef_sc_hd__decap_12
XTAP_TAPCELL_ROW_6_96 VGND VPWR sky130_fd_sc_hd__tapvpwrvgnd_1
Xoutput28 net28 VGND VGND VPWR VPWR product[4] sky130_fd_sc_hd__buf_2