* NGSPICE file created from mult.ext - technology: sky130A

* Black-box entry subcircuit for sky130_fd_sc_hd__tapvpwrvgnd_1 abstract view
.subckt sky130_fd_sc_hd__tapvpwrvgnd_1 VGND VPWR
.ends

* Black-box entry subcircuit for sky130_ef_sc_hd__decap_12 abstract view
.subckt sky130_ef_sc_hd__decap_12 VPWR VGND VPB VNB
.ends

* Black-box entry subcircuit for sky130_fd_sc_hd__fill_2 abstract view
.subckt sky130_fd_sc_hd__fill_2 VGND VNB VPB VPWR
.ends

* Black-box entry subcircuit for sky130_fd_sc_hd__decap_8 abstract view
.subckt sky130_fd_sc_hd__decap_8 VGND VNB VPB VPWR
.ends

* Black-box entry subcircuit for sky130_fd_sc_hd__decap_6 abstract view
.subckt sky130_fd_sc_hd__decap_6 VGND VNB VPB VPWR
.ends

* Black-box entry subcircuit for sky130_fd_sc_hd__decap_4 abstract view
.subckt sky130_fd_sc_hd__decap_4 VGND VNB VPB VPWR
.ends

* Black-box entry subcircuit for sky130_fd_sc_hd__dlygate4sd1_1 abstract view
.subckt sky130_fd_sc_hd__dlygate4sd1_1 A VGND VNB VPB VPWR X
.ends

* Black-box entry subcircuit for sky130_fd_sc_hd__fill_1 abstract view
.subckt sky130_fd_sc_hd__fill_1 VGND VNB VPB VPWR
.ends

* Black-box entry subcircuit for sky130_fd_sc_hd__inv_2 abstract view
.subckt sky130_fd_sc_hd__inv_2 A VGND VNB VPB VPWR Y
.ends

* Black-box entry subcircuit for sky130_fd_sc_hd__a21oi_1 abstract view
.subckt sky130_fd_sc_hd__a21oi_1 A1 A2 B1 VGND VNB VPB VPWR Y
.ends

* Black-box entry subcircuit for sky130_fd_sc_hd__dfrtp_1 abstract view
.subckt sky130_fd_sc_hd__dfrtp_1 CLK D RESET_B VGND VNB VPB VPWR Q
.ends

* Black-box entry subcircuit for sky130_fd_sc_hd__and2_1 abstract view
.subckt sky130_fd_sc_hd__and2_1 A B VGND VNB VPB VPWR X
.ends

* Black-box entry subcircuit for sky130_fd_sc_hd__nor2_1 abstract view
.subckt sky130_fd_sc_hd__nor2_1 A B VGND VNB VPB VPWR Y
.ends

* Black-box entry subcircuit for sky130_fd_sc_hd__xor2_1 abstract view
.subckt sky130_fd_sc_hd__xor2_1 A B VGND VNB VPB VPWR X
.ends

* Black-box entry subcircuit for sky130_fd_sc_hd__a22oi_1 abstract view
.subckt sky130_fd_sc_hd__a22oi_1 A1 A2 B1 B2 VGND VNB VPB VPWR Y
.ends

* Black-box entry subcircuit for sky130_fd_sc_hd__or3_4 abstract view
.subckt sky130_fd_sc_hd__or3_4 A B C VGND VNB VPB VPWR X
.ends

* Black-box entry subcircuit for sky130_fd_sc_hd__decap_3 abstract view
.subckt sky130_fd_sc_hd__decap_3 VGND VNB VPB VPWR
.ends

* Black-box entry subcircuit for sky130_fd_sc_hd__o21ba_1 abstract view
.subckt sky130_fd_sc_hd__o21ba_1 A1 A2 B1_N VGND VNB VPB VPWR X
.ends

* Black-box entry subcircuit for sky130_fd_sc_hd__o21a_1 abstract view
.subckt sky130_fd_sc_hd__o21a_1 A1 A2 B1 VGND VNB VPB VPWR X
.ends

* Black-box entry subcircuit for sky130_fd_sc_hd__and3_1 abstract view
.subckt sky130_fd_sc_hd__and3_1 A B C VGND VNB VPB VPWR X
.ends

* Black-box entry subcircuit for sky130_fd_sc_hd__and2_4 abstract view
.subckt sky130_fd_sc_hd__and2_4 A B VGND VNB VPB VPWR X
.ends

* Black-box entry subcircuit for sky130_fd_sc_hd__dlygate4sd3_1 abstract view
.subckt sky130_fd_sc_hd__dlygate4sd3_1 A VGND VNB VPB VPWR X
.ends

* Black-box entry subcircuit for sky130_fd_sc_hd__nand2_1 abstract view
.subckt sky130_fd_sc_hd__nand2_1 A B VGND VNB VPB VPWR Y
.ends

* Black-box entry subcircuit for sky130_fd_sc_hd__a211oi_1 abstract view
.subckt sky130_fd_sc_hd__a211oi_1 A1 A2 B1 C1 VGND VNB VPB VPWR Y
.ends

* Black-box entry subcircuit for sky130_fd_sc_hd__buf_2 abstract view
.subckt sky130_fd_sc_hd__buf_2 A VGND VNB VPB VPWR X
.ends

* Black-box entry subcircuit for sky130_fd_sc_hd__dfrtp_4 abstract view
.subckt sky130_fd_sc_hd__dfrtp_4 CLK D RESET_B VGND VNB VPB VPWR Q
.ends

* Black-box entry subcircuit for sky130_fd_sc_hd__o21ai_1 abstract view
.subckt sky130_fd_sc_hd__o21ai_1 A1 A2 B1 VGND VNB VPB VPWR Y
.ends

* Black-box entry subcircuit for sky130_fd_sc_hd__xnor2_1 abstract view
.subckt sky130_fd_sc_hd__xnor2_1 A B VGND VNB VPB VPWR Y
.ends

* Black-box entry subcircuit for sky130_fd_sc_hd__a21bo_1 abstract view
.subckt sky130_fd_sc_hd__a21bo_1 A1 A2 B1_N VGND VNB VPB VPWR X
.ends

* Black-box entry subcircuit for sky130_fd_sc_hd__and2b_1 abstract view
.subckt sky130_fd_sc_hd__and2b_1 A_N B VGND VNB VPB VPWR X
.ends

* Black-box entry subcircuit for sky130_fd_sc_hd__o211a_1 abstract view
.subckt sky130_fd_sc_hd__o211a_1 A1 A2 B1 C1 VGND VNB VPB VPWR X
.ends

* Black-box entry subcircuit for sky130_fd_sc_hd__dlymetal6s2s_1 abstract view
.subckt sky130_fd_sc_hd__dlymetal6s2s_1 A VGND VNB VPB VPWR X
.ends

* Black-box entry subcircuit for sky130_fd_sc_hd__a22o_1 abstract view
.subckt sky130_fd_sc_hd__a22o_1 A1 A2 B1 B2 VGND VNB VPB VPWR X
.ends

* Black-box entry subcircuit for sky130_fd_sc_hd__and3b_1 abstract view
.subckt sky130_fd_sc_hd__and3b_1 A_N B C VGND VNB VPB VPWR X
.ends

* Black-box entry subcircuit for sky130_fd_sc_hd__or3b_4 abstract view
.subckt sky130_fd_sc_hd__or3b_4 A B C_N VGND VNB VPB VPWR X
.ends

* Black-box entry subcircuit for sky130_fd_sc_hd__or2_1 abstract view
.subckt sky130_fd_sc_hd__or2_1 A B VGND VNB VPB VPWR X
.ends

* Black-box entry subcircuit for sky130_fd_sc_hd__clkbuf_2 abstract view
.subckt sky130_fd_sc_hd__clkbuf_2 A VGND VNB VPB VPWR X
.ends

* Black-box entry subcircuit for sky130_fd_sc_hd__a211o_1 abstract view
.subckt sky130_fd_sc_hd__a211o_1 A1 A2 B1 C1 VGND VNB VPB VPWR X
.ends

* Black-box entry subcircuit for sky130_fd_sc_hd__nor2_2 abstract view
.subckt sky130_fd_sc_hd__nor2_2 A B VGND VNB VPB VPWR Y
.ends

* Black-box entry subcircuit for sky130_fd_sc_hd__o21ba_4 abstract view
.subckt sky130_fd_sc_hd__o21ba_4 A1 A2 B1_N VGND VNB VPB VPWR X
.ends

* Black-box entry subcircuit for sky130_fd_sc_hd__a21oi_4 abstract view
.subckt sky130_fd_sc_hd__a21oi_4 A1 A2 B1 VGND VNB VPB VPWR Y
.ends

* Black-box entry subcircuit for sky130_fd_sc_hd__or3b_1 abstract view
.subckt sky130_fd_sc_hd__or3b_1 A B C_N VGND VNB VPB VPWR X
.ends

* Black-box entry subcircuit for sky130_fd_sc_hd__clkbuf_8 abstract view
.subckt sky130_fd_sc_hd__clkbuf_8 A VGND VNB VPB VPWR X
.ends

* Black-box entry subcircuit for sky130_fd_sc_hd__a21boi_2 abstract view
.subckt sky130_fd_sc_hd__a21boi_2 A1 A2 B1_N VGND VNB VPB VPWR Y
.ends

* Black-box entry subcircuit for sky130_fd_sc_hd__or2_4 abstract view
.subckt sky130_fd_sc_hd__or2_4 A B VGND VNB VPB VPWR X
.ends

* Black-box entry subcircuit for sky130_fd_sc_hd__xnor2_4 abstract view
.subckt sky130_fd_sc_hd__xnor2_4 A B VGND VNB VPB VPWR Y
.ends

* Black-box entry subcircuit for sky130_fd_sc_hd__clkbuf_4 abstract view
.subckt sky130_fd_sc_hd__clkbuf_4 A VGND VNB VPB VPWR X
.ends

* Black-box entry subcircuit for sky130_fd_sc_hd__o32a_1 abstract view
.subckt sky130_fd_sc_hd__o32a_1 A1 A2 A3 B1 B2 VGND VNB VPB VPWR X
.ends

* Black-box entry subcircuit for sky130_fd_sc_hd__buf_4 abstract view
.subckt sky130_fd_sc_hd__buf_4 A VGND VNB VPB VPWR X
.ends

* Black-box entry subcircuit for sky130_fd_sc_hd__xnor2_2 abstract view
.subckt sky130_fd_sc_hd__xnor2_2 A B VGND VNB VPB VPWR Y
.ends

* Black-box entry subcircuit for sky130_fd_sc_hd__inv_6 abstract view
.subckt sky130_fd_sc_hd__inv_6 A VGND VNB VPB VPWR Y
.ends

* Black-box entry subcircuit for sky130_fd_sc_hd__a21oi_2 abstract view
.subckt sky130_fd_sc_hd__a21oi_2 A1 A2 B1 VGND VNB VPB VPWR Y
.ends

* Black-box entry subcircuit for sky130_fd_sc_hd__clkinv_2 abstract view
.subckt sky130_fd_sc_hd__clkinv_2 A VGND VNB VPB VPWR Y
.ends

* Black-box entry subcircuit for sky130_fd_sc_hd__a21bo_4 abstract view
.subckt sky130_fd_sc_hd__a21bo_4 A1 A2 B1_N VGND VNB VPB VPWR X
.ends

* Black-box entry subcircuit for sky130_fd_sc_hd__o21ai_2 abstract view
.subckt sky130_fd_sc_hd__o21ai_2 A1 A2 B1 VGND VNB VPB VPWR Y
.ends

* Black-box entry subcircuit for sky130_fd_sc_hd__nand2_2 abstract view
.subckt sky130_fd_sc_hd__nand2_2 A B VGND VNB VPB VPWR Y
.ends

* Black-box entry subcircuit for sky130_fd_sc_hd__clkbuf_16 abstract view
.subckt sky130_fd_sc_hd__clkbuf_16 A VGND VNB VPB VPWR X
.ends

* Black-box entry subcircuit for sky130_fd_sc_hd__xor2_2 abstract view
.subckt sky130_fd_sc_hd__xor2_2 A B VGND VNB VPB VPWR X
.ends

* Black-box entry subcircuit for sky130_fd_sc_hd__clkinv_4 abstract view
.subckt sky130_fd_sc_hd__clkinv_4 A VGND VNB VPB VPWR Y
.ends

* Black-box entry subcircuit for sky130_fd_sc_hd__inv_8 abstract view
.subckt sky130_fd_sc_hd__inv_8 A VGND VNB VPB VPWR Y
.ends

* Black-box entry subcircuit for sky130_fd_sc_hd__nand2_4 abstract view
.subckt sky130_fd_sc_hd__nand2_4 A B VGND VNB VPB VPWR Y
.ends

* Black-box entry subcircuit for sky130_fd_sc_hd__nor2_8 abstract view
.subckt sky130_fd_sc_hd__nor2_8 A B VGND VNB VPB VPWR Y
.ends

* Black-box entry subcircuit for sky130_fd_sc_hd__and4_1 abstract view
.subckt sky130_fd_sc_hd__and4_1 A B C D VGND VNB VPB VPWR X
.ends

* Black-box entry subcircuit for sky130_fd_sc_hd__nor2_4 abstract view
.subckt sky130_fd_sc_hd__nor2_4 A B VGND VNB VPB VPWR Y
.ends

* Black-box entry subcircuit for sky130_fd_sc_hd__clkinv_8 abstract view
.subckt sky130_fd_sc_hd__clkinv_8 A VGND VNB VPB VPWR Y
.ends

* Black-box entry subcircuit for sky130_fd_sc_hd__clkbuf_1 abstract view
.subckt sky130_fd_sc_hd__clkbuf_1 A VGND VNB VPB VPWR X
.ends

* Black-box entry subcircuit for sky130_fd_sc_hd__o21bai_1 abstract view
.subckt sky130_fd_sc_hd__o21bai_1 A1 A2 B1_N VGND VNB VPB VPWR Y
.ends

* Black-box entry subcircuit for sky130_fd_sc_hd__clkinvlp_4 abstract view
.subckt sky130_fd_sc_hd__clkinvlp_4 A VGND VNB VPB VPWR Y
.ends

* Black-box entry subcircuit for sky130_fd_sc_hd__a31o_4 abstract view
.subckt sky130_fd_sc_hd__a31o_4 A1 A2 A3 B1 VGND VNB VPB VPWR X
.ends

* Black-box entry subcircuit for sky130_fd_sc_hd__nor3b_4 abstract view
.subckt sky130_fd_sc_hd__nor3b_4 A B C_N VGND VNB VPB VPWR Y
.ends

* Black-box entry subcircuit for sky130_fd_sc_hd__nor3_2 abstract view
.subckt sky130_fd_sc_hd__nor3_2 A B C VGND VNB VPB VPWR Y
.ends

* Black-box entry subcircuit for sky130_fd_sc_hd__o31a_1 abstract view
.subckt sky130_fd_sc_hd__o31a_1 A1 A2 A3 B1 VGND VNB VPB VPWR X
.ends

* Black-box entry subcircuit for sky130_fd_sc_hd__a21o_1 abstract view
.subckt sky130_fd_sc_hd__a21o_1 A1 A2 B1 VGND VNB VPB VPWR X
.ends

* Black-box entry subcircuit for sky130_fd_sc_hd__nand3_1 abstract view
.subckt sky130_fd_sc_hd__nand3_1 A B C VGND VNB VPB VPWR Y
.ends

* Black-box entry subcircuit for sky130_fd_sc_hd__o2111a_1 abstract view
.subckt sky130_fd_sc_hd__o2111a_1 A1 A2 B1 C1 D1 VGND VNB VPB VPWR X
.ends

* Black-box entry subcircuit for sky130_fd_sc_hd__dlymetal6s4s_1 abstract view
.subckt sky130_fd_sc_hd__dlymetal6s4s_1 A VGND VNB VPB VPWR X
.ends

* Black-box entry subcircuit for sky130_fd_sc_hd__nand4_1 abstract view
.subckt sky130_fd_sc_hd__nand4_1 A B C D VGND VNB VPB VPWR Y
.ends

* Black-box entry subcircuit for sky130_fd_sc_hd__nor3_1 abstract view
.subckt sky130_fd_sc_hd__nor3_1 A B C VGND VNB VPB VPWR Y
.ends

.subckt mult VGND VPWR a[0] a[1] a[2] a[3] a[4] a[5] a[6] a[7] b[0] b[1] b[2] b[3]
+ b[4] b[5] b[6] b[7] clk product[0] product[10] product[11] product[12] product[13]
+ product[14] product[15] product[1] product[2] product[3] product[4] product[5] product[6]
+ product[7] product[8] product[9] rst
XTAP_TAPCELL_ROW_52_404 VGND VPWR sky130_fd_sc_hd__tapvpwrvgnd_1
XFILLER_52_29 VPWR VGND VPWR VGND sky130_ef_sc_hd__decap_12
XFILLER_22_133 VGND VGND VPWR VPWR sky130_fd_sc_hd__fill_2
XFILLER_45_269 VGND VGND VPWR VPWR sky130_fd_sc_hd__decap_8
XFILLER_45_225 VGND VGND VPWR VPWR sky130_fd_sc_hd__decap_6
XFILLER_26_52 VPWR VGND VPWR VGND sky130_ef_sc_hd__decap_12
XFILLER_26_85 VGND VGND VPWR VPWR sky130_fd_sc_hd__decap_4
Xrebuffer7 _0420_ VGND VGND VPWR VPWR net72 sky130_fd_sc_hd__dlygate4sd1_1
XFILLER_9_126 VGND VGND VPWR VPWR sky130_fd_sc_hd__fill_1
XFILLER_13_155 VGND VGND VPWR VPWR sky130_fd_sc_hd__fill_1
X_1270_ net35 VGND VGND VPWR VPWR _0368_ sky130_fd_sc_hd__inv_2
X_0985_ pp3\[14\]\[1\] pp3\[11\]\[1\] _0619_ VGND VGND VPWR VPWR _0620_ sky130_fd_sc_hd__a21oi_1
XTAP_TAPCELL_ROW_14_194 VGND VPWR sky130_fd_sc_hd__tapvpwrvgnd_1
X_1399_ clknet_leaf_6_clk _0039_ _0250_ VGND VGND VPWR VPWR g5_5\[2\] sky130_fd_sc_hd__dfrtp_1
X_1468_ clknet_leaf_7_clk _0093_ _0319_ VGND VGND VPWR VPWR pp3\[13\]\[3\] sky130_fd_sc_hd__dfrtp_1
XFILLER_42_239 VGND VGND VPWR VPWR sky130_fd_sc_hd__decap_6
XFILLER_12_32 VGND VGND VPWR VPWR sky130_fd_sc_hd__decap_6
XFILLER_53_83 VGND VGND VPWR VPWR sky130_fd_sc_hd__fill_1
XFILLER_33_217 VGND VGND VPWR VPWR sky130_fd_sc_hd__decap_6
XFILLER_33_206 VGND VGND VPWR VPWR sky130_fd_sc_hd__decap_8
X_0770_ a0\[0\] b3\[0\] VGND VGND VPWR VPWR _0061_ sky130_fd_sc_hd__and2_1
XFILLER_5_173 VGND VGND VPWR VPWR sky130_fd_sc_hd__fill_1
XFILLER_5_140 VGND VGND VPWR VPWR sky130_fd_sc_hd__decap_8
XTAP_TAPCELL_ROW_11_175 VGND VPWR sky130_fd_sc_hd__tapvpwrvgnd_1
X_1322_ clknet_leaf_16_clk net169 _0173_ VGND VGND VPWR VPWR mid_8\[3\] sky130_fd_sc_hd__dfrtp_1
X_1253_ net39 VGND VGND VPWR VPWR _0351_ sky130_fd_sc_hd__inv_2
X_1184_ net36 VGND VGND VPWR VPWR _0282_ sky130_fd_sc_hd__inv_2
XTAP_TAPCELL_ROW_19_220 VGND VPWR sky130_fd_sc_hd__tapvpwrvgnd_1
XFILLER_24_228 VPWR VGND VPWR VGND sky130_ef_sc_hd__decap_12
XFILLER_32_294 VGND VGND VPWR VPWR sky130_fd_sc_hd__decap_6
X_0968_ _0105_ _0606_ VGND VGND VPWR VPWR _0108_ sky130_fd_sc_hd__nor2_1
X_0899_ pp3\[12\]\[3\] _0550_ _0549_ VGND VGND VPWR VPWR _0559_ sky130_fd_sc_hd__a21oi_1
XFILLER_30_209 VGND VGND VPWR VPWR sky130_fd_sc_hd__decap_4
XFILLER_23_272 VGND VGND VPWR VPWR sky130_fd_sc_hd__decap_8
XFILLER_23_31 VGND VGND VPWR VPWR sky130_fd_sc_hd__decap_4
XFILLER_38_309 VGND VGND VPWR VPWR sky130_fd_sc_hd__fill_1
XFILLER_0_57 VPWR VGND VPWR VGND sky130_ef_sc_hd__decap_12
XTAP_TAPCELL_ROW_16_201 VGND VPWR sky130_fd_sc_hd__tapvpwrvgnd_1
X_0822_ g5_5\[2\] g4_5\[4\] VGND VGND VPWR VPWR _0494_ sky130_fd_sc_hd__xor2_1
XFILLER_9_55 VGND VGND VPWR VPWR sky130_fd_sc_hd__fill_1
XFILLER_50_3 VPWR VGND VPWR VGND sky130_ef_sc_hd__decap_12
X_0753_ a1\[1\] b1\[0\] a1\[0\] b1\[1\] VGND VGND VPWR VPWR _0457_ sky130_fd_sc_hd__a22oi_1
X_0684_ part1_7\[8\] _0405_ _0408_ VGND VGND VPWR VPWR _0410_ sky130_fd_sc_hd__or3_4
XFILLER_49_180 VGND VGND VPWR VPWR sky130_fd_sc_hd__fill_1
X_1236_ net37 VGND VGND VPWR VPWR _0334_ sky130_fd_sc_hd__inv_2
X_1305_ clknet_leaf_16_clk net195 _0156_ VGND VGND VPWR VPWR sum_9\[2\] sky130_fd_sc_hd__dfrtp_1
X_1098_ net60 VGND VGND VPWR VPWR _0196_ sky130_fd_sc_hd__inv_2
X_1167_ net44 VGND VGND VPWR VPWR _0265_ sky130_fd_sc_hd__inv_2
XTAP_TAPCELL_ROW_30_281 VGND VPWR sky130_fd_sc_hd__tapvpwrvgnd_1
XTAP_TAPCELL_ROW_22_237 VGND VPWR sky130_fd_sc_hd__tapvpwrvgnd_1
XFILLER_47_106 VGND VGND VPWR VPWR sky130_fd_sc_hd__fill_2
XFILLER_43_301 VGND VGND VPWR VPWR sky130_fd_sc_hd__decap_8
XFILLER_34_85 VGND VGND VPWR VPWR sky130_fd_sc_hd__decap_4
XFILLER_38_139 VGND VGND VPWR VPWR sky130_fd_sc_hd__fill_1
XFILLER_53_109 VGND VGND VPWR VPWR sky130_fd_sc_hd__decap_3
XFILLER_34_312 VGND VGND VPWR VPWR sky130_fd_sc_hd__fill_1
X_1021_ _0379_ _0567_ g1_5\[3\] VGND VGND VPWR VPWR _0635_ sky130_fd_sc_hd__o21ba_1
X_0805_ _0483_ _0486_ _0488_ VGND VGND VPWR VPWR _0065_ sky130_fd_sc_hd__o21a_1
X_0736_ pp3\[1\]\[0\] pp3\[4\]\[0\] _0444_ VGND VGND VPWR VPWR _0447_ sky130_fd_sc_hd__and3_1
X_0667_ part0_7\[5\] part1_7\[5\] VGND VGND VPWR VPWR _0396_ sky130_fd_sc_hd__and2_4
XFILLER_37_150 VGND VGND VPWR VPWR sky130_fd_sc_hd__fill_1
X_1219_ net53 VGND VGND VPWR VPWR _0317_ sky130_fd_sc_hd__inv_2
XFILLER_52_197 VPWR VGND VPWR VGND sky130_ef_sc_hd__decap_12
XFILLER_4_249 VGND VGND VPWR VPWR sky130_fd_sc_hd__decap_3
Xhold63 pp2\[3\]\[3\] VGND VGND VPWR VPWR net128 sky130_fd_sc_hd__dlygate4sd3_1
Xhold41 b[0] VGND VGND VPWR VPWR net106 sky130_fd_sc_hd__dlygate4sd3_1
Xhold52 mid_8\[6\] VGND VGND VPWR VPWR net117 sky130_fd_sc_hd__dlygate4sd3_1
Xhold74 part1_6\[9\] VGND VGND VPWR VPWR net139 sky130_fd_sc_hd__dlygate4sd3_1
XFILLER_43_131 VPWR VGND VPWR VGND sky130_ef_sc_hd__decap_12
Xhold85 pp2\[7\]\[2\] VGND VGND VPWR VPWR net150 sky130_fd_sc_hd__dlygate4sd3_1
Xhold96 g1_4\[3\] VGND VGND VPWR VPWR net161 sky130_fd_sc_hd__dlygate4sd3_1
XTAP_TAPCELL_ROW_41_343 VGND VPWR sky130_fd_sc_hd__tapvpwrvgnd_1
XFILLER_3_260 VGND VGND VPWR VPWR sky130_fd_sc_hd__fill_1
Xrebuffer17 g2_5\[3\] VGND VGND VPWR VPWR net82 sky130_fd_sc_hd__dlygate4sd1_1
X_1004_ b3\[1\] a3\[1\] VGND VGND VPWR VPWR _0629_ sky130_fd_sc_hd__nand2_1
XFILLER_34_131 VGND VGND VPWR VPWR sky130_fd_sc_hd__fill_1
X_0719_ _0431_ _0433_ _0427_ _0429_ VGND VGND VPWR VPWR _0435_ sky130_fd_sc_hd__a211oi_1
Xoutput20 net20 VGND VGND VPWR VPWR product[11] sky130_fd_sc_hd__buf_2
XFILLER_31_86 VPWR VGND VPWR VGND sky130_ef_sc_hd__decap_12
Xoutput31 net31 VGND VGND VPWR VPWR product[7] sky130_fd_sc_hd__buf_2
XFILLER_31_178 VGND VGND VPWR VPWR sky130_fd_sc_hd__fill_1
XFILLER_39_201 VGND VGND VPWR VPWR sky130_fd_sc_hd__decap_4
X_1484_ clknet_leaf_21_clk _0054_ _0335_ VGND VGND VPWR VPWR pp2\[1\]\[3\] sky130_fd_sc_hd__dfrtp_1
XFILLER_10_307 VGND VGND VPWR VPWR sky130_fd_sc_hd__fill_1
XFILLER_22_178 VGND VGND VPWR VPWR sky130_fd_sc_hd__decap_6
XFILLER_53_281 VPWR VGND VPWR VGND sky130_ef_sc_hd__decap_12
XFILLER_26_64 VPWR VGND VPWR VGND sky130_ef_sc_hd__decap_12
XFILLER_42_85 VPWR VGND VPWR VGND sky130_ef_sc_hd__decap_12
XFILLER_42_52 VGND VGND VPWR VPWR sky130_fd_sc_hd__decap_8
Xrebuffer8 _0425_ VGND VGND VPWR VPWR net73 sky130_fd_sc_hd__dlygate4sd1_1
XFILLER_9_138 VGND VGND VPWR VPWR sky130_fd_sc_hd__decap_4
XFILLER_13_178 VGND VGND VPWR VPWR sky130_fd_sc_hd__decap_8
XFILLER_3_57 VGND VGND VPWR VPWR sky130_fd_sc_hd__decap_4
XTAP_TAPCELL_ROW_8_160 VGND VPWR sky130_fd_sc_hd__tapvpwrvgnd_1
X_0984_ pp3\[14\]\[0\] pp3\[11\]\[0\] _0617_ VGND VGND VPWR VPWR _0619_ sky130_fd_sc_hd__and3_1
XTAP_TAPCELL_ROW_14_195 VGND VPWR sky130_fd_sc_hd__tapvpwrvgnd_1
XFILLER_8_193 VGND VGND VPWR VPWR sky130_fd_sc_hd__decap_3
X_1398_ clknet_leaf_6_clk _0038_ _0249_ VGND VGND VPWR VPWR g5_5\[1\] sky130_fd_sc_hd__dfrtp_1
X_1467_ clknet_leaf_7_clk _0095_ _0318_ VGND VGND VPWR VPWR pp3\[13\]\[2\] sky130_fd_sc_hd__dfrtp_1
XPHY_EDGE_ROW_19_Left_73 VGND VGND VPWR VPWR sky130_fd_sc_hd__decap_3
Xhold160 g4_5\[2\] VGND VGND VPWR VPWR net225 sky130_fd_sc_hd__dlygate4sd3_1
XTAP_TAPCELL_ROW_5_141 VGND VPWR sky130_fd_sc_hd__tapvpwrvgnd_1
XFILLER_5_152 VPWR VGND VPWR VGND sky130_ef_sc_hd__decap_12
XTAP_TAPCELL_ROW_11_176 VGND VPWR sky130_fd_sc_hd__tapvpwrvgnd_1
X_1321_ clknet_leaf_16_clk net182 _0172_ VGND VGND VPWR VPWR mid_8\[2\] sky130_fd_sc_hd__dfrtp_1
X_1252_ net36 VGND VGND VPWR VPWR _0350_ sky130_fd_sc_hd__inv_2
X_1183_ net36 VGND VGND VPWR VPWR _0281_ sky130_fd_sc_hd__inv_2
XTAP_TAPCELL_ROW_19_221 VGND VPWR sky130_fd_sc_hd__tapvpwrvgnd_1
X_0967_ _0605_ _0606_ _0607_ VGND VGND VPWR VPWR _0107_ sky130_fd_sc_hd__o21a_1
X_0898_ pp3\[9\]\[3\] _0547_ _0546_ VGND VGND VPWR VPWR _0558_ sky130_fd_sc_hd__a21oi_1
X_1519_ clknet_leaf_22_clk net11 _0370_ VGND VGND VPWR VPWR b1\[0\] sky130_fd_sc_hd__dfrtp_4
XPHY_EDGE_ROW_12_Right_12 VGND VGND VPWR VPWR sky130_fd_sc_hd__decap_3
XPHY_EDGE_ROW_21_Right_21 VGND VGND VPWR VPWR sky130_fd_sc_hd__decap_3
XPHY_EDGE_ROW_4_Left_58 VGND VGND VPWR VPWR sky130_fd_sc_hd__decap_3
XPHY_EDGE_ROW_30_Right_30 VGND VGND VPWR VPWR sky130_fd_sc_hd__decap_3
XFILLER_0_69 VGND VGND VPWR VPWR sky130_fd_sc_hd__decap_8
XTAP_TAPCELL_ROW_16_202 VGND VPWR sky130_fd_sc_hd__tapvpwrvgnd_1
X_0821_ g5_5\[2\] g4_5\[4\] VGND VGND VPWR VPWR _0493_ sky130_fd_sc_hd__and2_1
X_0752_ b1\[1\] a1\[1\] _0045_ VGND VGND VPWR VPWR _0046_ sky130_fd_sc_hd__and3_1
XFILLER_14_251 VGND VGND VPWR VPWR sky130_fd_sc_hd__fill_1
X_0683_ _0405_ _0408_ part1_7\[8\] VGND VGND VPWR VPWR _0409_ sky130_fd_sc_hd__o21ai_1
X_1166_ net43 VGND VGND VPWR VPWR _0264_ sky130_fd_sc_hd__inv_2
X_1235_ net37 VGND VGND VPWR VPWR _0333_ sky130_fd_sc_hd__inv_2
X_1304_ clknet_leaf_16_clk net130 _0155_ VGND VGND VPWR VPWR sum_9\[1\] sky130_fd_sc_hd__dfrtp_1
X_1097_ net60 VGND VGND VPWR VPWR _0195_ sky130_fd_sc_hd__inv_2
XTAP_TAPCELL_ROW_22_238 VGND VPWR sky130_fd_sc_hd__tapvpwrvgnd_1
XTAP_TAPCELL_ROW_30_282 VGND VPWR sky130_fd_sc_hd__tapvpwrvgnd_1
XFILLER_20_265 VGND VGND VPWR VPWR sky130_fd_sc_hd__fill_1
XFILLER_20_287 VGND VGND VPWR VPWR sky130_fd_sc_hd__fill_1
XFILLER_43_313 VGND VGND VPWR VPWR sky130_fd_sc_hd__decap_4
XFILLER_50_41 VGND VGND VPWR VPWR sky130_fd_sc_hd__decap_4
XFILLER_7_225 VGND VGND VPWR VPWR sky130_fd_sc_hd__fill_1
X_1020_ net232 net97 VGND VGND VPWR VPWR _0003_ sky130_fd_sc_hd__xnor2_1
X_0804_ pp3\[13\]\[3\] _0479_ _0478_ VGND VGND VPWR VPWR _0488_ sky130_fd_sc_hd__a21bo_1
X_0735_ _0444_ _0445_ VGND VGND VPWR VPWR _0446_ sky130_fd_sc_hd__and2b_1
X_0666_ _0381_ _0395_ VGND VGND VPWR VPWR _0007_ sky130_fd_sc_hd__and2_1
XFILLER_52_121 VPWR VGND VPWR VGND sky130_ef_sc_hd__decap_12
X_1149_ net56 VGND VGND VPWR VPWR _0247_ sky130_fd_sc_hd__inv_2
X_1218_ net53 VGND VGND VPWR VPWR _0316_ sky130_fd_sc_hd__inv_2
XTAP_TAPCELL_ROW_50_388 VGND VPWR sky130_fd_sc_hd__tapvpwrvgnd_1
Xhold75 part2_7\[13\] VGND VGND VPWR VPWR net140 sky130_fd_sc_hd__dlygate4sd3_1
Xhold53 part1_6\[11\] VGND VGND VPWR VPWR net118 sky130_fd_sc_hd__dlygate4sd3_1
Xhold64 part1_6\[12\] VGND VGND VPWR VPWR net129 sky130_fd_sc_hd__dlygate4sd3_1
Xhold86 part0_6\[3\] VGND VGND VPWR VPWR net151 sky130_fd_sc_hd__dlygate4sd3_1
Xhold42 b[2] VGND VGND VPWR VPWR net107 sky130_fd_sc_hd__dlygate4sd3_1
Xhold97 sum_9\[6\] VGND VGND VPWR VPWR net162 sky130_fd_sc_hd__dlygate4sd3_1
XFILLER_43_143 VGND VGND VPWR VPWR sky130_fd_sc_hd__fill_1
XFILLER_6_24 VGND VGND VPWR VPWR sky130_fd_sc_hd__fill_1
XPHY_EDGE_ROW_7_Left_61 VGND VGND VPWR VPWR sky130_fd_sc_hd__decap_3
X_1003_ _0628_ VGND VGND VPWR VPWR _0121_ sky130_fd_sc_hd__inv_2
X_0718_ _0429_ _0427_ _0431_ _0433_ VGND VGND VPWR VPWR _0434_ sky130_fd_sc_hd__o211a_1
XPHY_EDGE_ROW_6_Right_6 VGND VGND VPWR VPWR sky130_fd_sc_hd__decap_3
X_0649_ g3_5\[2\] g2_5\[4\] VGND VGND VPWR VPWR _0384_ sky130_fd_sc_hd__nor2_1
XFILLER_40_124 VGND VGND VPWR VPWR sky130_fd_sc_hd__decap_4
XFILLER_15_55 VGND VGND VPWR VPWR sky130_fd_sc_hd__fill_1
XFILLER_25_110 VGND VGND VPWR VPWR sky130_fd_sc_hd__fill_2
XFILLER_25_132 VGND VGND VPWR VPWR sky130_fd_sc_hd__decap_8
Xoutput21 net21 VGND VGND VPWR VPWR product[12] sky130_fd_sc_hd__buf_2
XPHY_EDGE_ROW_33_Left_87 VGND VGND VPWR VPWR sky130_fd_sc_hd__decap_3
Xoutput32 net32 VGND VGND VPWR VPWR product[8] sky130_fd_sc_hd__buf_2
XFILLER_31_98 VPWR VGND VPWR VGND sky130_ef_sc_hd__decap_12
XFILLER_0_264 VPWR VGND VPWR VGND sky130_ef_sc_hd__decap_12
XFILLER_39_268 VGND VGND VPWR VPWR sky130_fd_sc_hd__fill_2
X_1483_ clknet_leaf_21_clk _0056_ _0334_ VGND VGND VPWR VPWR pp2\[1\]\[2\] sky130_fd_sc_hd__dfrtp_1
XFILLER_39_279 VGND VGND VPWR VPWR sky130_fd_sc_hd__fill_1
XFILLER_22_102 VGND VGND VPWR VPWR sky130_fd_sc_hd__decap_3
XFILLER_53_293 VGND VGND VPWR VPWR sky130_fd_sc_hd__decap_4
XFILLER_26_76 VGND VGND VPWR VPWR sky130_fd_sc_hd__decap_4
XFILLER_42_97 VGND VGND VPWR VPWR sky130_fd_sc_hd__decap_8
XFILLER_5_312 VGND VGND VPWR VPWR sky130_fd_sc_hd__fill_1
Xrebuffer9 _0541_ VGND VGND VPWR VPWR net74 sky130_fd_sc_hd__dlymetal6s2s_1
XTAP_TAPCELL_ROW_8_161 VGND VPWR sky130_fd_sc_hd__tapvpwrvgnd_1
XFILLER_36_227 VGND VGND VPWR VPWR sky130_fd_sc_hd__decap_4
XFILLER_36_205 VGND VGND VPWR VPWR sky130_fd_sc_hd__fill_2
X_0983_ pp3\[14\]\[0\] pp3\[11\]\[0\] VGND VGND VPWR VPWR _0618_ sky130_fd_sc_hd__nand2_1
X_1397_ clknet_leaf_9_clk _0037_ _0248_ VGND VGND VPWR VPWR g5_5\[0\] sky130_fd_sc_hd__dfrtp_1
X_1466_ clknet_leaf_7_clk _0094_ _0317_ VGND VGND VPWR VPWR pp3\[13\]\[1\] sky130_fd_sc_hd__dfrtp_1
XFILLER_10_149 VPWR VGND VPWR VGND sky130_ef_sc_hd__decap_12
XFILLER_12_23 VGND VGND VPWR VPWR sky130_fd_sc_hd__decap_4
Xhold161 _0042_ VGND VGND VPWR VPWR net226 sky130_fd_sc_hd__dlygate4sd3_1
XTAP_TAPCELL_ROW_5_142 VGND VPWR sky130_fd_sc_hd__tapvpwrvgnd_1
Xhold150 pp2\[0\]\[1\] VGND VGND VPWR VPWR net215 sky130_fd_sc_hd__dlygate4sd3_1
XFILLER_37_75 VPWR VGND VPWR VGND sky130_ef_sc_hd__decap_12
XFILLER_53_85 VPWR VGND VPWR VGND sky130_ef_sc_hd__decap_12
XFILLER_53_41 VGND VGND VPWR VPWR sky130_fd_sc_hd__decap_8
XFILLER_41_263 VPWR VGND VPWR VGND sky130_ef_sc_hd__decap_12
XPHY_EDGE_ROW_36_Left_90 VGND VGND VPWR VPWR sky130_fd_sc_hd__decap_3
XFILLER_5_164 VGND VGND VPWR VPWR sky130_fd_sc_hd__decap_4
X_1320_ clknet_leaf_17_clk net172 _0171_ VGND VGND VPWR VPWR mid_8\[1\] sky130_fd_sc_hd__dfrtp_1
XTAP_TAPCELL_ROW_11_177 VGND VPWR sky130_fd_sc_hd__tapvpwrvgnd_1
X_1182_ net36 VGND VGND VPWR VPWR _0280_ sky130_fd_sc_hd__inv_2
X_1251_ net39 VGND VGND VPWR VPWR _0349_ sky130_fd_sc_hd__inv_2
XTAP_TAPCELL_ROW_19_222 VGND VPWR sky130_fd_sc_hd__tapvpwrvgnd_1
XPHY_EDGE_ROW_20_Left_74 VGND VGND VPWR VPWR sky130_fd_sc_hd__decap_3
X_0897_ _0551_ _0552_ _0556_ _0555_ VGND VGND VPWR VPWR _0557_ sky130_fd_sc_hd__o211a_1
X_0966_ b1\[0\] a2\[1\] a2\[0\] b1\[1\] VGND VGND VPWR VPWR _0607_ sky130_fd_sc_hd__a22o_1
X_1518_ clknet_leaf_22_clk net10 _0369_ VGND VGND VPWR VPWR b0\[1\] sky130_fd_sc_hd__dfrtp_4
X_1449_ clknet_leaf_1_clk _0105_ _0300_ VGND VGND VPWR VPWR pp3\[9\]\[0\] sky130_fd_sc_hd__dfrtp_1
XFILLER_3_3 VPWR VGND VPWR VGND sky130_ef_sc_hd__decap_12
XFILLER_2_134 VGND VGND VPWR VPWR sky130_fd_sc_hd__decap_6
XFILLER_48_41 VPWR VGND VPWR VGND sky130_ef_sc_hd__decap_12
XFILLER_0_15 VPWR VGND VPWR VGND sky130_ef_sc_hd__decap_12
XFILLER_14_241 VGND VGND VPWR VPWR sky130_fd_sc_hd__fill_1
XTAP_TAPCELL_ROW_16_203 VGND VPWR sky130_fd_sc_hd__tapvpwrvgnd_1
X_0820_ g5_5\[0\] net225 VGND VGND VPWR VPWR _0042_ sky130_fd_sc_hd__xor2_1
XFILLER_9_57 VPWR VGND VPWR VGND sky130_ef_sc_hd__decap_12
X_0751_ _0045_ a1\[1\] b1\[1\] VGND VGND VPWR VPWR _0048_ sky130_fd_sc_hd__and3b_1
X_1303_ clknet_leaf_16_clk net145 _0154_ VGND VGND VPWR VPWR sum_9\[0\] sky130_fd_sc_hd__dfrtp_1
X_0682_ _0406_ net85 VGND VGND VPWR VPWR _0017_ sky130_fd_sc_hd__xor2_1
XTAP_TAPCELL_ROW_47_372 VGND VPWR sky130_fd_sc_hd__tapvpwrvgnd_1
X_1096_ net60 VGND VGND VPWR VPWR _0194_ sky130_fd_sc_hd__inv_2
XTAP_TAPCELL_ROW_39_328 VGND VPWR sky130_fd_sc_hd__tapvpwrvgnd_1
X_1234_ net37 VGND VGND VPWR VPWR _0332_ sky130_fd_sc_hd__inv_2
X_1165_ net41 VGND VGND VPWR VPWR _0263_ sky130_fd_sc_hd__inv_2
XTAP_TAPCELL_ROW_22_239 VGND VPWR sky130_fd_sc_hd__tapvpwrvgnd_1
XTAP_TAPCELL_ROW_30_283 VGND VPWR sky130_fd_sc_hd__tapvpwrvgnd_1
X_0949_ _0586_ _0589_ _0597_ VGND VGND VPWR VPWR _0599_ sky130_fd_sc_hd__or3b_4
XFILLER_20_277 VGND VGND VPWR VPWR sky130_fd_sc_hd__fill_2
XFILLER_20_299 VGND VGND VPWR VPWR sky130_fd_sc_hd__fill_1
XFILLER_47_119 VGND VGND VPWR VPWR sky130_fd_sc_hd__decap_4
XFILLER_18_33 VGND VGND VPWR VPWR sky130_fd_sc_hd__decap_4
XFILLER_34_54 VPWR VGND VPWR VGND sky130_ef_sc_hd__decap_12
XFILLER_7_204 VPWR VGND VPWR VGND sky130_ef_sc_hd__decap_12
XFILLER_11_200 VGND VGND VPWR VPWR sky130_fd_sc_hd__decap_8
XFILLER_11_211 VPWR VGND VPWR VGND sky130_ef_sc_hd__decap_12
XFILLER_11_277 VGND VGND VPWR VPWR sky130_fd_sc_hd__decap_3
XFILLER_46_141 VGND VGND VPWR VPWR sky130_fd_sc_hd__decap_4
X_0803_ _0486_ _0487_ VGND VGND VPWR VPWR _0068_ sky130_fd_sc_hd__and2b_1
X_0734_ pp3\[1\]\[0\] pp3\[4\]\[0\] VGND VGND VPWR VPWR _0445_ sky130_fd_sc_hd__nand2_1
X_0665_ g3_5\[0\] g2_5\[2\] VGND VGND VPWR VPWR _0395_ sky130_fd_sc_hd__or2_1
XFILLER_29_108 VGND VGND VPWR VPWR sky130_fd_sc_hd__decap_4
XFILLER_52_133 VGND VGND VPWR VPWR sky130_fd_sc_hd__decap_6
X_1148_ net56 VGND VGND VPWR VPWR _0246_ sky130_fd_sc_hd__inv_2
XFILLER_40_306 VGND VGND VPWR VPWR sky130_fd_sc_hd__fill_2
XFILLER_37_163 VGND VGND VPWR VPWR sky130_fd_sc_hd__decap_4
X_1217_ net53 VGND VGND VPWR VPWR _0315_ sky130_fd_sc_hd__inv_2
X_1079_ net50 VGND VGND VPWR VPWR _0177_ sky130_fd_sc_hd__inv_2
XTAP_TAPCELL_ROW_50_389 VGND VPWR sky130_fd_sc_hd__tapvpwrvgnd_1
Xhold76 part2_7\[11\] VGND VGND VPWR VPWR net141 sky130_fd_sc_hd__dlygate4sd3_1
Xhold65 mid_8\[1\] VGND VGND VPWR VPWR net130 sky130_fd_sc_hd__dlygate4sd3_1
Xhold54 part0_6\[5\] VGND VGND VPWR VPWR net119 sky130_fd_sc_hd__dlygate4sd3_1
Xhold43 a[3] VGND VGND VPWR VPWR net108 sky130_fd_sc_hd__dlygate4sd3_1
Xhold87 part1_6\[7\] VGND VGND VPWR VPWR net152 sky130_fd_sc_hd__dlygate4sd3_1
Xhold98 part1_6\[8\] VGND VGND VPWR VPWR net163 sky130_fd_sc_hd__dlygate4sd3_1
XFILLER_29_76 VGND VGND VPWR VPWR sky130_fd_sc_hd__decap_4
XPHY_EDGE_ROW_51_Left_105 VGND VGND VPWR VPWR sky130_fd_sc_hd__decap_3
XFILLER_45_97 VGND VGND VPWR VPWR sky130_fd_sc_hd__decap_3
XFILLER_28_185 VGND VGND VPWR VPWR sky130_fd_sc_hd__fill_1
XFILLER_20_6 VGND VGND VPWR VPWR sky130_fd_sc_hd__decap_3
X_1002_ b3\[0\] a3\[0\] VGND VGND VPWR VPWR _0628_ sky130_fd_sc_hd__nand2_1
Xrebuffer19 _0413_ VGND VGND VPWR VPWR net84 sky130_fd_sc_hd__clkbuf_2
X_0717_ part2_8\[12\] mid_8\[12\] VGND VGND VPWR VPWR _0433_ sky130_fd_sc_hd__nand2_1
X_0648_ _0382_ _0383_ VGND VGND VPWR VPWR _0008_ sky130_fd_sc_hd__nor2_1
XFILLER_25_144 VGND VGND VPWR VPWR sky130_fd_sc_hd__decap_8
Xoutput22 net22 VGND VGND VPWR VPWR product[13] sky130_fd_sc_hd__buf_2
Xoutput33 net33 VGND VGND VPWR VPWR product[9] sky130_fd_sc_hd__buf_2
XFILLER_0_276 VGND VGND VPWR VPWR sky130_fd_sc_hd__decap_4
XFILLER_0_287 VPWR VGND VPWR VGND sky130_ef_sc_hd__decap_12
XFILLER_31_169 VGND VGND VPWR VPWR sky130_fd_sc_hd__fill_2
X_1482_ clknet_leaf_21_clk _0055_ _0333_ VGND VGND VPWR VPWR pp2\[1\]\[1\] sky130_fd_sc_hd__dfrtp_1
XFILLER_39_225 VGND VGND VPWR VPWR sky130_fd_sc_hd__fill_1
XFILLER_47_291 VGND VGND VPWR VPWR sky130_fd_sc_hd__decap_6
XFILLER_22_125 VGND VGND VPWR VPWR sky130_fd_sc_hd__decap_8
XFILLER_10_309 VGND VGND VPWR VPWR sky130_fd_sc_hd__decap_8
XFILLER_45_206 VGND VGND VPWR VPWR sky130_fd_sc_hd__fill_1
XFILLER_3_15 VPWR VGND VPWR VGND sky130_ef_sc_hd__decap_12
XTAP_TAPCELL_ROW_8_162 VGND VPWR sky130_fd_sc_hd__tapvpwrvgnd_1
X_0982_ pp3\[14\]\[1\] pp3\[11\]\[1\] VGND VGND VPWR VPWR _0617_ sky130_fd_sc_hd__xor2_1
XFILLER_12_191 VGND VGND VPWR VPWR sky130_fd_sc_hd__decap_4
X_1465_ clknet_leaf_7_clk _0092_ _0316_ VGND VGND VPWR VPWR pp3\[13\]\[0\] sky130_fd_sc_hd__dfrtp_1
X_1396_ clknet_leaf_6_clk _0065_ _0247_ VGND VGND VPWR VPWR g4_5\[5\] sky130_fd_sc_hd__dfrtp_1
XFILLER_50_253 VGND VGND VPWR VPWR sky130_fd_sc_hd__decap_6
XFILLER_35_272 VGND VGND VPWR VPWR sky130_fd_sc_hd__fill_2
Xhold162 part1_7\[12\] VGND VGND VPWR VPWR net227 sky130_fd_sc_hd__dlygate4sd3_1