*SPEF "ieee 1481-1999"
*DESIGN "mult"
*DATE "01:34:49 Thursday December 04, 2025"
*VENDOR "The OpenROAD Project"
*PROGRAM "OpenROAD"
*VERSION "edf00dff99f6c40d67a30c0e22a8191c5d2ed9d6"
*DESIGN_FLOW "NAME_SCOPE LOCAL" "PIN_CAP NONE"
*DIVIDER /
*DELIMITER :
*BUS_DELIMITER []
*T_UNIT 1 NS
*C_UNIT 1 PF
*R_UNIT 1 OHM
*L_UNIT 1 HENRY

*NAME_MAP
*3 a[0]
*4 a[1]
*5 a[2]
*6 a[3]
*7 a[4]
*8 a[5]
*9 a[6]
*10 a[7]
*11 b[0]
*12 b[1]
*13 b[2]
*14 b[3]
*15 b[4]
*16 b[5]
*17 b[6]
*18 b[7]
*19 clk
*20 product_out[0]
*21 net21
*22 net22
*23 net23
*24 net24
*25 net25
*26 net26
*27 product_out[1]
*28 product_out[2]
*29 product_out[3]
*30 product_out[4]
*31 product_out[5]
*32 product_out[6]
*33 product_out[7]
*34 net19
*35 net20
*36 rst
*37 PPs_r2\[0\]\[0\]
*38 PPs_r2\[1\]\[1\]
*39 PPs_r2\[2\]\[2\]
*40 PPs_r2\[3\]\[3\]
*41 PPs_r2\[4\]\[4\]
*42 PPs_r2\[5\]\[5\]
*43 PPs_r2\[6\]\[6\]
*44 PPs_r2\[7\]\[7\]
*45 PPs_r3_remain\[0\]\[6\]
*46 PPs_r3_remain\[1\]\[7\]
*47 PPs_w\[0\]\[0\]
*48 PPs_w\[1\]\[1\]
*49 PPs_w\[2\]\[2\]
*50 PPs_w\[3\]\[3\]
*51 PPs_w\[4\]\[4\]
*52 PPs_w\[5\]\[5\]
*53 PPs_w\[6\]\[6\]
*54 PPs_w\[7\]\[7\]
*55 S_r3\[0\]\[0\]
*56 S_r3\[0\]\[1\]
*57 S_r3\[0\]\[2\]
*58 S_r3\[1\]\[3\]
*59 S_r3\[1\]\[4\]
*60 S_r3\[1\]\[5\]
*61 S_r4\[0\]
*62 S_r4\[1\]
*63 S_r4\[2\]
*64 S_r4\[3\]
*65 S_r4\[4\]
*66 S_r4\[5\]
*67 S_r4\[6\]
*68 S_r4\[7\]
*69 a_r1\[0\]
*70 a_r1\[1\]
*71 a_r1\[2\]
*72 a_r1\[3\]
*73 a_r1\[4\]
*74 a_r1\[5\]
*75 a_r1\[6\]
*76 a_r1\[7\]
*77 b_r1\[0\]
*78 clknet_0_clk
*79 clknet_2_0__leaf_clk
*80 clknet_2_1__leaf_clk
*81 clknet_2_2__leaf_clk
*82 clknet_2_3__leaf_clk
*83 net1
*84 net10
*85 net11
*86 net12
*87 net13
*88 net14
*89 net15
*90 net16
*91 net17
*92 net18
*93 net2
*94 net3
*95 net4
*96 net5
*97 net6
*98 net7
*99 net8
*100 net9
*101 ANTENNA_1
*102 ANTENNA_2
*103 ANTENNA_3
*104 ANTENNA_4
*105 ANTENNA_5
*106 ANTENNA_6
*107 ANTENNA_7
*108 FILLER_0_109
*109 FILLER_0_113
*110 FILLER_0_125
*111 FILLER_0_137
*112 FILLER_0_141
*113 FILLER_0_15
*114 FILLER_0_153
*115 FILLER_0_165
*116 FILLER_0_169
*117 FILLER_0_181
*118 FILLER_0_193
*119 FILLER_0_197
*120 FILLER_0_209
*121 FILLER_0_221
*122 FILLER_0_225
*123 FILLER_0_237
*124 FILLER_0_249
*125 FILLER_0_253
*126 FILLER_0_258
*127 FILLER_0_27
*128 FILLER_0_270
*129 FILLER_0_278
*130 FILLER_0_281
*131 FILLER_0_29
*132 FILLER_0_293
*133 FILLER_0_3
*134 FILLER_0_305
*135 FILLER_0_309
*136 FILLER_0_321
*137 FILLER_0_333
*138 FILLER_0_337
*139 FILLER_0_349
*140 FILLER_0_361
*141 FILLER_0_365
*142 FILLER_0_377
*143 FILLER_0_389
*144 FILLER_0_393
*145 FILLER_0_405
*146 FILLER_0_41
*147 FILLER_0_417
*148 FILLER_0_421
*149 FILLER_0_433
*150 FILLER_0_441
*151 FILLER_0_447
*152 FILLER_0_449
*153 FILLER_0_461
*154 FILLER_0_475
*155 FILLER_0_477
*156 FILLER_0_489
*157 FILLER_0_496
*158 FILLER_0_518
*159 FILLER_0_53
*160 FILLER_0_530
*161 FILLER_0_533
*162 FILLER_0_545
*163 FILLER_0_557
*164 FILLER_0_561
*165 FILLER_0_57
*166 FILLER_0_573
*167 FILLER_0_585
*168 FILLER_0_589
*169 FILLER_0_601
*170 FILLER_0_613
*171 FILLER_0_617
*172 FILLER_0_629
*173 FILLER_0_641
*174 FILLER_0_645
*175 FILLER_0_657
*176 FILLER_0_669
*177 FILLER_0_673
*178 FILLER_0_685
*179 FILLER_0_69
*180 FILLER_0_697
*181 FILLER_0_701
*182 FILLER_0_713
*183 FILLER_0_725
*184 FILLER_0_729
*185 FILLER_0_741
*186 FILLER_0_753
*187 FILLER_0_757
*188 FILLER_0_769
*189 FILLER_0_781
*190 FILLER_0_785
*191 FILLER_0_797
*192 FILLER_0_809
*193 FILLER_0_81
*194 FILLER_0_813
*195 FILLER_0_825
*196 FILLER_0_837
*197 FILLER_0_841
*198 FILLER_0_85
*199 FILLER_0_853
*200 FILLER_0_865
*201 FILLER_0_869
*202 FILLER_0_881
*203 FILLER_0_893
*204 FILLER_0_897
*205 FILLER_0_909
*206 FILLER_0_921
*207 FILLER_0_925
*208 FILLER_0_937
*209 FILLER_0_949
*210 FILLER_0_953
*211 FILLER_0_97
*212 FILLER_100_109
*213 FILLER_100_121
*214 FILLER_100_133
*215 FILLER_100_139
*216 FILLER_100_141
*217 FILLER_100_15
*218 FILLER_100_153
*219 FILLER_100_165
*220 FILLER_100_177
*221 FILLER_100_189
*222 FILLER_100_195
*223 FILLER_100_197
*224 FILLER_100_209
*225 FILLER_100_221
*226 FILLER_100_233
*227 FILLER_100_245
*228 FILLER_100_251
*229 FILLER_100_253
*230 FILLER_100_265
*231 FILLER_100_27
*232 FILLER_100_277
*233 FILLER_100_289
*234 FILLER_100_29
*235 FILLER_100_3
*236 FILLER_100_301
*237 FILLER_100_307
*238 FILLER_100_309
*239 FILLER_100_321
*240 FILLER_100_333
*241 FILLER_100_345
*242 FILLER_100_357
*243 FILLER_100_363
*244 FILLER_100_365
*245 FILLER_100_377
*246 FILLER_100_389
*247 FILLER_100_401
*248 FILLER_100_41
*249 FILLER_100_413
*250 FILLER_100_419
*251 FILLER_100_421
*252 FILLER_100_433
*253 FILLER_100_445
*254 FILLER_100_457
*255 FILLER_100_469
*256 FILLER_100_475
*257 FILLER_100_477
*258 FILLER_100_489
*259 FILLER_100_501
*260 FILLER_100_513
*261 FILLER_100_525
*262 FILLER_100_53
*263 FILLER_100_531
*264 FILLER_100_533
*265 FILLER_100_545
*266 FILLER_100_557
*267 FILLER_100_569
*268 FILLER_100_581
*269 FILLER_100_587
*270 FILLER_100_589
*271 FILLER_100_601
*272 FILLER_100_613
*273 FILLER_100_625
*274 FILLER_100_637
*275 FILLER_100_643
*276 FILLER_100_645
*277 FILLER_100_65
*278 FILLER_100_657
*279 FILLER_100_669
*280 FILLER_100_681
*281 FILLER_100_693
*282 FILLER_100_699
*283 FILLER_100_701
*284 FILLER_100_713
*285 FILLER_100_725
*286 FILLER_100_737
*287 FILLER_100_749
*288 FILLER_100_755
*289 FILLER_100_757
*290 FILLER_100_769
*291 FILLER_100_77
*292 FILLER_100_781
*293 FILLER_100_793
*294 FILLER_100_805
*295 FILLER_100_811
*296 FILLER_100_813
*297 FILLER_100_825
*298 FILLER_100_83
*299 FILLER_100_837
*300 FILLER_100_849
*301 FILLER_100_85
*302 FILLER_100_861
*303 FILLER_100_867
*304 FILLER_100_869
*305 FILLER_100_881
*306 FILLER_100_893
*307 FILLER_100_905
*308 FILLER_100_917
*309 FILLER_100_923
*310 FILLER_100_925
*311 FILLER_100_937
*312 FILLER_100_949
*313 FILLER_100_97
*314 FILLER_101_105
*315 FILLER_101_111
*316 FILLER_101_113
*317 FILLER_101_125
*318 FILLER_101_137
*319 FILLER_101_149
*320 FILLER_101_15
*321 FILLER_101_161
*322 FILLER_101_167
*323 FILLER_101_169
*324 FILLER_101_181
*325 FILLER_101_193
*326 FILLER_101_205
*327 FILLER_101_217
*328 FILLER_101_223
*329 FILLER_101_225
*330 FILLER_101_237
*331 FILLER_101_249
*332 FILLER_101_261
*333 FILLER_101_27
*334 FILLER_101_273
*335 FILLER_101_279
*336 FILLER_101_281
*337 FILLER_101_293
*338 FILLER_101_3
*339 FILLER_101_305
*340 FILLER_101_317
*341 FILLER_101_329
*342 FILLER_101_335
*343 FILLER_101_337
*344 FILLER_101_349
*345 FILLER_101_361
*346 FILLER_101_373
*347 FILLER_101_385
*348 FILLER_101_39
*349 FILLER_101_391
*350 FILLER_101_393
*351 FILLER_101_405
*352 FILLER_101_417
*353 FILLER_101_429
*354 FILLER_101_441
*355 FILLER_101_447
*356 FILLER_101_449
*357 FILLER_101_461
*358 FILLER_101_473
*359 FILLER_101_485
*360 FILLER_101_497
*361 FILLER_101_503
*362 FILLER_101_505
*363 FILLER_101_51
*364 FILLER_101_517
*365 FILLER_101_529
*366 FILLER_101_541
*367 FILLER_101_55
*368 FILLER_101_553
*369 FILLER_101_559
*370 FILLER_101_561
*371 FILLER_101_57
*372 FILLER_101_573
*373 FILLER_101_585
*374 FILLER_101_597
*375 FILLER_101_609
*376 FILLER_101_615
*377 FILLER_101_617
*378 FILLER_101_629
*379 FILLER_101_641
*380 FILLER_101_653
*381 FILLER_101_665
*382 FILLER_101_671
*383 FILLER_101_673
*384 FILLER_101_685
*385 FILLER_101_69
*386 FILLER_101_697
*387 FILLER_101_709
*388 FILLER_101_721
*389 FILLER_101_727
*390 FILLER_101_729
*391 FILLER_101_741
*392 FILLER_101_753
*393 FILLER_101_765
*394 FILLER_101_777
*395 FILLER_101_783
*396 FILLER_101_785
*397 FILLER_101_797
*398 FILLER_101_809
*399 FILLER_101_81
*400 FILLER_101_821
*401 FILLER_101_833
*402 FILLER_101_839
*403 FILLER_101_841
*404 FILLER_101_853
*405 FILLER_101_865
*406 FILLER_101_877
*407 FILLER_101_889
*408 FILLER_101_895
*409 FILLER_101_897
*410 FILLER_101_909
*411 FILLER_101_921
*412 FILLER_101_93
*413 FILLER_101_933
*414 FILLER_101_945
*415 FILLER_101_951
*416 FILLER_101_953
*417 FILLER_102_109
*418 FILLER_102_121
*419 FILLER_102_133
*420 FILLER_102_139
*421 FILLER_102_141
*422 FILLER_102_15
*423 FILLER_102_153
*424 FILLER_102_165
*425 FILLER_102_177
*426 FILLER_102_189
*427 FILLER_102_195
*428 FILLER_102_197
*429 FILLER_102_209
*430 FILLER_102_221
*431 FILLER_102_233
*432 FILLER_102_245
*433 FILLER_102_251
*434 FILLER_102_253
*435 FILLER_102_265
*436 FILLER_102_27
*437 FILLER_102_277
*438 FILLER_102_289
*439 FILLER_102_29
*440 FILLER_102_3
*441 FILLER_102_301
*442 FILLER_102_307
*443 FILLER_102_309
*444 FILLER_102_321
*445 FILLER_102_333
*446 FILLER_102_345
*447 FILLER_102_357
*448 FILLER_102_363
*449 FILLER_102_365
*450 FILLER_102_377
*451 FILLER_102_389
*452 FILLER_102_401
*453 FILLER_102_41
*454 FILLER_102_413
*455 FILLER_102_419
*456 FILLER_102_421
*457 FILLER_102_433
*458 FILLER_102_445
*459 FILLER_102_457
*460 FILLER_102_469
*461 FILLER_102_475
*462 FILLER_102_477
*463 FILLER_102_489
*464 FILLER_102_501
*465 FILLER_102_513
*466 FILLER_102_525
*467 FILLER_102_53
*468 FILLER_102_531
*469 FILLER_102_533
*470 FILLER_102_545
*471 FILLER_102_557
*472 FILLER_102_569
*473 FILLER_102_581
*474 FILLER_102_587
*475 FILLER_102_589
*476 FILLER_102_601
*477 FILLER_102_613
*478 FILLER_102_625
*479 FILLER_102_637
*480 FILLER_102_643
*481 FILLER_102_645
*482 FILLER_102_65
*483 FILLER_102_657
*484 FILLER_102_669
*485 FILLER_102_681
*486 FILLER_102_693
*487 FILLER_102_699
*488 FILLER_102_701
*489 FILLER_102_713
*490 FILLER_102_725
*491 FILLER_102_737
*492 FILLER_102_749
*493 FILLER_102_755
*494 FILLER_102_757
*495 FILLER_102_769
*496 FILLER_102_77
*497 FILLER_102_781
*498 FILLER_102_793
*499 FILLER_102_805
*500 FILLER_102_811
*501 FILLER_102_813
*502 FILLER_102_825
*503 FILLER_102_83
*504 FILLER_102_837
*505 FILLER_102_849
*506 FILLER_102_85
*507 FILLER_102_861
*508 FILLER_102_867
*509 FILLER_102_869
*510 FILLER_102_881
*511 FILLER_102_893
*512 FILLER_102_905
*513 FILLER_102_917
*514 FILLER_102_923
*515 FILLER_102_925
*516 FILLER_102_937
*517 FILLER_102_949
*518 FILLER_102_97
*519 FILLER_103_105
*520 FILLER_103_111
*521 FILLER_103_113
*522 FILLER_103_125
*523 FILLER_103_137
*524 FILLER_103_149
*525 FILLER_103_15
*526 FILLER_103_161
*527 FILLER_103_167
*528 FILLER_103_169
*529 FILLER_103_181
*530 FILLER_103_193
*531 FILLER_103_205
*532 FILLER_103_217
*533 FILLER_103_223
*534 FILLER_103_225
*535 FILLER_103_237
*536 FILLER_103_249
*537 FILLER_103_261
*538 FILLER_103_27
*539 FILLER_103_273
*540 FILLER_103_279
*541 FILLER_103_281
*542 FILLER_103_293
*543 FILLER_103_3
*544 FILLER_103_305
*545 FILLER_103_317
*546 FILLER_103_329
*547 FILLER_103_335
*548 FILLER_103_337
*549 FILLER_103_349
*550 FILLER_103_361
*551 FILLER_103_373
*552 FILLER_103_385
*553 FILLER_103_39
*554 FILLER_103_391
*555 FILLER_103_393
*556 FILLER_103_405
*557 FILLER_103_417
*558 FILLER_103_429
*559 FILLER_103_441
*560 FILLER_103_447
*561 FILLER_103_449
*562 FILLER_103_461
*563 FILLER_103_473
*564 FILLER_103_485
*565 FILLER_103_497
*566 FILLER_103_503
*567 FILLER_103_505
*568 FILLER_103_51
*569 FILLER_103_517
*570 FILLER_103_529
*571 FILLER_103_541
*572 FILLER_103_55
*573 FILLER_103_553
*574 FILLER_103_559
*575 FILLER_103_561
*576 FILLER_103_57
*577 FILLER_103_573
*578 FILLER_103_585
*579 FILLER_103_597
*580 FILLER_103_609
*581 FILLER_103_615
*582 FILLER_103_617
*583 FILLER_103_629
*584 FILLER_103_641
*585 FILLER_103_653
*586 FILLER_103_665
*587 FILLER_103_671
*588 FILLER_103_673
*589 FILLER_103_685
*590 FILLER_103_69
*591 FILLER_103_697
*592 FILLER_103_709
*593 FILLER_103_721
*594 FILLER_103_727
*595 FILLER_103_729
*596 FILLER_103_741
*597 FILLER_103_753
*598 FILLER_103_765
*599 FILLER_103_777
*600 FILLER_103_783
*601 FILLER_103_785
*602 FILLER_103_797
*603 FILLER_103_809
*604 FILLER_103_81
*605 FILLER_103_821
*606 FILLER_103_833
*607 FILLER_103_839
*608 FILLER_103_841
*609 FILLER_103_853
*610 FILLER_103_865
*611 FILLER_103_877
*612 FILLER_103_889
*613 FILLER_103_895
*614 FILLER_103_897
*615 FILLER_103_909
*616 FILLER_103_921
*617 FILLER_103_93
*618 FILLER_103_933
*619 FILLER_103_945
*620 FILLER_103_951
*621 FILLER_103_953
*622 FILLER_104_109
*623 FILLER_104_121
*624 FILLER_104_133
*625 FILLER_104_139
*626 FILLER_104_141
*627 FILLER_104_15
*628 FILLER_104_153
*629 FILLER_104_165
*630 FILLER_104_177
*631 FILLER_104_189
*632 FILLER_104_195
*633 FILLER_104_197
*634 FILLER_104_209
*635 FILLER_104_221
*636 FILLER_104_233
*637 FILLER_104_245
*638 FILLER_104_251
*639 FILLER_104_253
*640 FILLER_104_265
*641 FILLER_104_27
*642 FILLER_104_277
*643 FILLER_104_289
*644 FILLER_104_29
*645 FILLER_104_3
*646 FILLER_104_301
*647 FILLER_104_307
*648 FILLER_104_309
*649 FILLER_104_321
*650 FILLER_104_333
*651 FILLER_104_345
*652 FILLER_104_357
*653 FILLER_104_363
*654 FILLER_104_365
*655 FILLER_104_377
*656 FILLER_104_389
*657 FILLER_104_401
*658 FILLER_104_41
*659 FILLER_104_413
*660 FILLER_104_419
*661 FILLER_104_421
*662 FILLER_104_433
*663 FILLER_104_445
*664 FILLER_104_457
*665 FILLER_104_469
*666 FILLER_104_475
*667 FILLER_104_477
*668 FILLER_104_489
*669 FILLER_104_501
*670 FILLER_104_513
*671 FILLER_104_525
*672 FILLER_104_53
*673 FILLER_104_531
*674 FILLER_104_533
*675 FILLER_104_545
*676 FILLER_104_557
*677 FILLER_104_569
*678 FILLER_104_581
*679 FILLER_104_587
*680 FILLER_104_589
*681 FILLER_104_601
*682 FILLER_104_613
*683 FILLER_104_625
*684 FILLER_104_637
*685 FILLER_104_643
*686 FILLER_104_645
*687 FILLER_104_65
*688 FILLER_104_657
*689 FILLER_104_669
*690 FILLER_104_681
*691 FILLER_104_693
*692 FILLER_104_699
*693 FILLER_104_701
*694 FILLER_104_713
*695 FILLER_104_725
*696 FILLER_104_737
*697 FILLER_104_749
*698 FILLER_104_755
*699 FILLER_104_757
*700 FILLER_104_769
*701 FILLER_104_77
*702 FILLER_104_781
*703 FILLER_104_793
*704 FILLER_104_805
*705 FILLER_104_811
*706 FILLER_104_813
*707 FILLER_104_825
*708 FILLER_104_83
*709 FILLER_104_837
*710 FILLER_104_849
*711 FILLER_104_85
*712 FILLER_104_861
*713 FILLER_104_867
*714 FILLER_104_869
*715 FILLER_104_881
*716 FILLER_104_893
*717 FILLER_104_905
*718 FILLER_104_917
*719 FILLER_104_923
*720 FILLER_104_925
*721 FILLER_104_937
*722 FILLER_104_949
*723 FILLER_104_97
*724 FILLER_105_105
*725 FILLER_105_111
*726 FILLER_105_113
*727 FILLER_105_125
*728 FILLER_105_137
*729 FILLER_105_149
*730 FILLER_105_15
*731 FILLER_105_161
*732 FILLER_105_167
*733 FILLER_105_169
*734 FILLER_105_181
*735 FILLER_105_193
*736 FILLER_105_205
*737 FILLER_105_217
*738 FILLER_105_223
*739 FILLER_105_225
*740 FILLER_105_237
*741 FILLER_105_249
*742 FILLER_105_261
*743 FILLER_105_27
*744 FILLER_105_273
*745 FILLER_105_279
*746 FILLER_105_281
*747 FILLER_105_293
*748 FILLER_105_3
*749 FILLER_105_305
*750 FILLER_105_317
*751 FILLER_105_329
*752 FILLER_105_335
*753 FILLER_105_337
*754 FILLER_105_349
*755 FILLER_105_361
*756 FILLER_105_373
*757 FILLER_105_385
*758 FILLER_105_39
*759 FILLER_105_391
*760 FILLER_105_393
*761 FILLER_105_405
*762 FILLER_105_417
*763 FILLER_105_429
*764 FILLER_105_441
*765 FILLER_105_447
*766 FILLER_105_449
*767 FILLER_105_461
*768 FILLER_105_473
*769 FILLER_105_485
*770 FILLER_105_497
*771 FILLER_105_503
*772 FILLER_105_505
*773 FILLER_105_51
*774 FILLER_105_517
*775 FILLER_105_529
*776 FILLER_105_541
*777 FILLER_105_55
*778 FILLER_105_553
*779 FILLER_105_559
*780 FILLER_105_561
*781 FILLER_105_57
*782 FILLER_105_573
*783 FILLER_105_585
*784 FILLER_105_597
*785 FILLER_105_609
*786 FILLER_105_615
*787 FILLER_105_617
*788 FILLER_105_629
*789 FILLER_105_641
*790 FILLER_105_653
*791 FILLER_105_665
*792 FILLER_105_671
*793 FILLER_105_673
*794 FILLER_105_685
*795 FILLER_105_69
*796 FILLER_105_697
*797 FILLER_105_709
*798 FILLER_105_721
*799 FILLER_105_727
*800 FILLER_105_729
*801 FILLER_105_741
*802 FILLER_105_753
*803 FILLER_105_765
*804 FILLER_105_777
*805 FILLER_105_783
*806 FILLER_105_785
*807 FILLER_105_797
*808 FILLER_105_809
*809 FILLER_105_81
*810 FILLER_105_821
*811 FILLER_105_833
*812 FILLER_105_839
*813 FILLER_105_841
*814 FILLER_105_853
*815 FILLER_105_865
*816 FILLER_105_877
*817 FILLER_105_889
*818 FILLER_105_895
*819 FILLER_105_897
*820 FILLER_105_909
*821 FILLER_105_921
*822 FILLER_105_93
*823 FILLER_105_933
*824 FILLER_105_945
*825 FILLER_105_951
*826 FILLER_105_953
*827 FILLER_106_109
*828 FILLER_106_121
*829 FILLER_106_133
*830 FILLER_106_139
*831 FILLER_106_141
*832 FILLER_106_15
*833 FILLER_106_153
*834 FILLER_106_165
*835 FILLER_106_177
*836 FILLER_106_189
*837 FILLER_106_195
*838 FILLER_106_197
*839 FILLER_106_209
*840 FILLER_106_221
*841 FILLER_106_233
*842 FILLER_106_245
*843 FILLER_106_251
*844 FILLER_106_253
*845 FILLER_106_265
*846 FILLER_106_27
*847 FILLER_106_277
*848 FILLER_106_289
*849 FILLER_106_29
*850 FILLER_106_3
*851 FILLER_106_301
*852 FILLER_106_307
*853 FILLER_106_309
*854 FILLER_106_321
*855 FILLER_106_333
*856 FILLER_106_345
*857 FILLER_106_357
*858 FILLER_106_363
*859 FILLER_106_365
*860 FILLER_106_377
*861 FILLER_106_389
*862 FILLER_106_401
*863 FILLER_106_41
*864 FILLER_106_413
*865 FILLER_106_419
*866 FILLER_106_421
*867 FILLER_106_433
*868 FILLER_106_445
*869 FILLER_106_457
*870 FILLER_106_469
*871 FILLER_106_475
*872 FILLER_106_477
*873 FILLER_106_489
*874 FILLER_106_501
*875 FILLER_106_513
*876 FILLER_106_525
*877 FILLER_106_53
*878 FILLER_106_531
*879 FILLER_106_533
*880 FILLER_106_545
*881 FILLER_106_557
*882 FILLER_106_569
*883 FILLER_106_581
*884 FILLER_106_587
*885 FILLER_106_589
*886 FILLER_106_601
*887 FILLER_106_613
*888 FILLER_106_625
*889 FILLER_106_637
*890 FILLER_106_643
*891 FILLER_106_645
*892 FILLER_106_65
*893 FILLER_106_657
*894 FILLER_106_669
*895 FILLER_106_681
*896 FILLER_106_693
*897 FILLER_106_699
*898 FILLER_106_701
*899 FILLER_106_713
*900 FILLER_106_725
*901 FILLER_106_737
*902 FILLER_106_749
*903 FILLER_106_755
*904 FILLER_106_757
*905 FILLER_106_769
*906 FILLER_106_77
*907 FILLER_106_781
*908 FILLER_106_793
*909 FILLER_106_805
*910 FILLER_106_811
*911 FILLER_106_813
*912 FILLER_106_825
*913 FILLER_106_83
*914 FILLER_106_837
*915 FILLER_106_849
*916 FILLER_106_85
*917 FILLER_106_861
*918 FILLER_106_867
*919 FILLER_106_869
*920 FILLER_106_881
*921 FILLER_106_893
*922 FILLER_106_905
*923 FILLER_106_917
*924 FILLER_106_923
*925 FILLER_106_925
*926 FILLER_106_937
*927 FILLER_106_949
*928 FILLER_106_97
*929 FILLER_107_105
*930 FILLER_107_111
*931 FILLER_107_113
*932 FILLER_107_125
*933 FILLER_107_137
*934 FILLER_107_149
*935 FILLER_107_15
*936 FILLER_107_161
*937 FILLER_107_167
*938 FILLER_107_169
*939 FILLER_107_181
*940 FILLER_107_193
*941 FILLER_107_205
*942 FILLER_107_217
*943 FILLER_107_223
*944 FILLER_107_225
*945 FILLER_107_237
*946 FILLER_107_249
*947 FILLER_107_261
*948 FILLER_107_27
*949 FILLER_107_273
*950 FILLER_107_279
*951 FILLER_107_281
*952 FILLER_107_293
*953 FILLER_107_3
*954 FILLER_107_305
*955 FILLER_107_317
*956 FILLER_107_329
*957 FILLER_107_335
*958 FILLER_107_337
*959 FILLER_107_349
*960 FILLER_107_361
*961 FILLER_107_373
*962 FILLER_107_385
*963 FILLER_107_39
*964 FILLER_107_391
*965 FILLER_107_393
*966 FILLER_107_405
*967 FILLER_107_417
*968 FILLER_107_429
*969 FILLER_107_441
*970 FILLER_107_447
*971 FILLER_107_449
*972 FILLER_107_456
*973 FILLER_107_468
*974 FILLER_107_480
*975 FILLER_107_492
*976 FILLER_107_505
*977 FILLER_107_51
*978 FILLER_107_517
*979 FILLER_107_529
*980 FILLER_107_541
*981 FILLER_107_55
*982 FILLER_107_553
*983 FILLER_107_559
*984 FILLER_107_561
*985 FILLER_107_57
*986 FILLER_107_573
*987 FILLER_107_585
*988 FILLER_107_597
*989 FILLER_107_609
*990 FILLER_107_615
*991 FILLER_107_617
*992 FILLER_107_629
*993 FILLER_107_641
*994 FILLER_107_653
*995 FILLER_107_665
*996 FILLER_107_671
*997 FILLER_107_673
*998 FILLER_107_685
*999 FILLER_107_69
*1000 FILLER_107_697
*1001 FILLER_107_709
*1002 FILLER_107_721
*1003 FILLER_107_727
*1004 FILLER_107_729
*1005 FILLER_107_741
*1006 FILLER_107_753
*1007 FILLER_107_765
*1008 FILLER_107_777
*1009 FILLER_107_783
*1010 FILLER_107_785
*1011 FILLER_107_797
*1012 FILLER_107_809
*1013 FILLER_107_81
*1014 FILLER_107_821
*1015 FILLER_107_833
*1016 FILLER_107_839
*1017 FILLER_107_841
*1018 FILLER_107_853
*1019 FILLER_107_865
*1020 FILLER_107_877
*1021 FILLER_107_889
*1022 FILLER_107_895
*1023 FILLER_107_897
*1024 FILLER_107_909
*1025 FILLER_107_921
*1026 FILLER_107_93
*1027 FILLER_107_933
*1028 FILLER_107_945
*1029 FILLER_107_951
*1030 FILLER_107_953
*1031 FILLER_108_109
*1032 FILLER_108_121
*1033 FILLER_108_133
*1034 FILLER_108_139
*1035 FILLER_108_141
*1036 FILLER_108_15
*1037 FILLER_108_153
*1038 FILLER_108_165
*1039 FILLER_108_177
*1040 FILLER_108_189
*1041 FILLER_108_195
*1042 FILLER_108_197
*1043 FILLER_108_209
*1044 FILLER_108_221
*1045 FILLER_108_233
*1046 FILLER_108_245
*1047 FILLER_108_251
*1048 FILLER_108_253
*1049 FILLER_108_265
*1050 FILLER_108_27
*1051 FILLER_108_277
*1052 FILLER_108_289
*1053 FILLER_108_29
*1054 FILLER_108_3
*1055 FILLER_108_301
*1056 FILLER_108_307
*1057 FILLER_108_309
*1058 FILLER_108_321
*1059 FILLER_108_333
*1060 FILLER_108_345
*1061 FILLER_108_357
*1062 FILLER_108_363
*1063 FILLER_108_365
*1064 FILLER_108_377
*1065 FILLER_108_389
*1066 FILLER_108_401
*1067 FILLER_108_41
*1068 FILLER_108_413
*1069 FILLER_108_419
*1070 FILLER_108_421
*1071 FILLER_108_433
*1072 FILLER_108_445
*1073 FILLER_108_457
*1074 FILLER_108_469
*1075 FILLER_108_475
*1076 FILLER_108_477
*1077 FILLER_108_489
*1078 FILLER_108_501
*1079 FILLER_108_513
*1080 FILLER_108_525
*1081 FILLER_108_53
*1082 FILLER_108_531
*1083 FILLER_108_533
*1084 FILLER_108_545
*1085 FILLER_108_557
*1086 FILLER_108_569
*1087 FILLER_108_581
*1088 FILLER_108_587
*1089 FILLER_108_589
*1090 FILLER_108_601
*1091 FILLER_108_613
*1092 FILLER_108_625
*1093 FILLER_108_637
*1094 FILLER_108_643
*1095 FILLER_108_645
*1096 FILLER_108_65
*1097 FILLER_108_657
*1098 FILLER_108_669
*1099 FILLER_108_681
*1100 FILLER_108_693
*1101 FILLER_108_699
*1102 FILLER_108_701
*1103 FILLER_108_713
*1104 FILLER_108_725
*1105 FILLER_108_737
*1106 FILLER_108_749
*1107 FILLER_108_755
*1108 FILLER_108_757
*1109 FILLER_108_769
*1110 FILLER_108_77
*1111 FILLER_108_781
*1112 FILLER_108_793
*1113 FILLER_108_805
*1114 FILLER_108_811
*1115 FILLER_108_813
*1116 FILLER_108_825
*1117 FILLER_108_83
*1118 FILLER_108_837
*1119 FILLER_108_849
*1120 FILLER_108_85
*1121 FILLER_108_861
*1122 FILLER_108_867
*1123 FILLER_108_869
*1124 FILLER_108_881
*1125 FILLER_108_893
*1126 FILLER_108_905
*1127 FILLER_108_917
*1128 FILLER_108_923
*1129 FILLER_108_925
*1130 FILLER_108_937
*1131 FILLER_108_949
*1132 FILLER_108_97
*1133 FILLER_109_105
*1134 FILLER_109_111
*1135 FILLER_109_113
*1136 FILLER_109_125
*1137 FILLER_109_137
*1138 FILLER_109_149
*1139 FILLER_109_15
*1140 FILLER_109_161
*1141 FILLER_109_167
*1142 FILLER_109_169
*1143 FILLER_109_181
*1144 FILLER_109_193
*1145 FILLER_109_205
*1146 FILLER_109_217
*1147 FILLER_109_223
*1148 FILLER_109_225
*1149 FILLER_109_237
*1150 FILLER_109_249
*1151 FILLER_109_261
*1152 FILLER_109_27
*1153 FILLER_109_273
*1154 FILLER_109_279
*1155 FILLER_109_281
*1156 FILLER_109_293
*1157 FILLER_109_3
*1158 FILLER_109_305
*1159 FILLER_109_317
*1160 FILLER_109_329
*1161 FILLER_109_335
*1162 FILLER_109_337
*1163 FILLER_109_349
*1164 FILLER_109_361
*1165 FILLER_109_373
*1166 FILLER_109_385
*1167 FILLER_109_39
*1168 FILLER_109_391
*1169 FILLER_109_393
*1170 FILLER_109_405
*1171 FILLER_109_417
*1172 FILLER_109_429
*1173 FILLER_109_441
*1174 FILLER_109_447
*1175 FILLER_109_449
*1176 FILLER_109_461
*1177 FILLER_109_484
*1178 FILLER_109_496
*1179 FILLER_109_505
*1180 FILLER_109_51
*1181 FILLER_109_517
*1182 FILLER_109_529
*1183 FILLER_109_541
*1184 FILLER_109_55
*1185 FILLER_109_553
*1186 FILLER_109_559
*1187 FILLER_109_561
*1188 FILLER_109_57
*1189 FILLER_109_573
*1190 FILLER_109_585
*1191 FILLER_109_597
*1192 FILLER_109_609
*1193 FILLER_109_615
*1194 FILLER_109_617
*1195 FILLER_109_629
*1196 FILLER_109_641
*1197 FILLER_109_653
*1198 FILLER_109_665
*1199 FILLER_109_671
*1200 FILLER_109_673
*1201 FILLER_109_685
*1202 FILLER_109_69
*1203 FILLER_109_697
*1204 FILLER_109_709
*1205 FILLER_109_721
*1206 FILLER_109_727
*1207 FILLER_109_729
*1208 FILLER_109_741
*1209 FILLER_109_753
*1210 FILLER_109_765
*1211 FILLER_109_777
*1212 FILLER_109_783
*1213 FILLER_109_785
*1214 FILLER_109_797
*1215 FILLER_109_809
*1216 FILLER_109_81
*1217 FILLER_109_821
*1218 FILLER_109_833
*1219 FILLER_109_839
*1220 FILLER_109_841
*1221 FILLER_109_853
*1222 FILLER_109_865
*1223 FILLER_109_877
*1224 FILLER_109_889
*1225 FILLER_109_895
*1226 FILLER_109_897
*1227 FILLER_109_909
*1228 FILLER_109_921
*1229 FILLER_109_93
*1230 FILLER_109_933
*1231 FILLER_109_945
*1232 FILLER_109_951
*1233 FILLER_109_953
*1234 FILLER_10_109
*1235 FILLER_10_121
*1236 FILLER_10_133
*1237 FILLER_10_139
*1238 FILLER_10_141
*1239 FILLER_10_15
*1240 FILLER_10_153
*1241 FILLER_10_165
*1242 FILLER_10_177
*1243 FILLER_10_189
*1244 FILLER_10_195
*1245 FILLER_10_197
*1246 FILLER_10_209
*1247 FILLER_10_221
*1248 FILLER_10_233
*1249 FILLER_10_245
*1250 FILLER_10_251
*1251 FILLER_10_253
*1252 FILLER_10_265
*1253 FILLER_10_27
*1254 FILLER_10_277
*1255 FILLER_10_289
*1256 FILLER_10_29
*1257 FILLER_10_3
*1258 FILLER_10_301
*1259 FILLER_10_307
*1260 FILLER_10_309
*1261 FILLER_10_321
*1262 FILLER_10_333
*1263 FILLER_10_345
*1264 FILLER_10_357
*1265 FILLER_10_363
*1266 FILLER_10_365
*1267 FILLER_10_377
*1268 FILLER_10_389
*1269 FILLER_10_401
*1270 FILLER_10_41
*1271 FILLER_10_413
*1272 FILLER_10_419
*1273 FILLER_10_421
*1274 FILLER_10_433
*1275 FILLER_10_445
*1276 FILLER_10_457
*1277 FILLER_10_469
*1278 FILLER_10_475
*1279 FILLER_10_477
*1280 FILLER_10_489
*1281 FILLER_10_501
*1282 FILLER_10_513
*1283 FILLER_10_525
*1284 FILLER_10_53
*1285 FILLER_10_531
*1286 FILLER_10_533
*1287 FILLER_10_545
*1288 FILLER_10_557
*1289 FILLER_10_569
*1290 FILLER_10_581
*1291 FILLER_10_587
*1292 FILLER_10_589
*1293 FILLER_10_601
*1294 FILLER_10_613
*1295 FILLER_10_625
*1296 FILLER_10_637
*1297 FILLER_10_643
*1298 FILLER_10_645
*1299 FILLER_10_65
*1300 FILLER_10_657
*1301 FILLER_10_669
*1302 FILLER_10_681
*1303 FILLER_10_693
*1304 FILLER_10_699
*1305 FILLER_10_701
*1306 FILLER_10_713
*1307 FILLER_10_725
*1308 FILLER_10_737
*1309 FILLER_10_749
*1310 FILLER_10_755
*1311 FILLER_10_757
*1312 FILLER_10_769
*1313 FILLER_10_77
*1314 FILLER_10_781
*1315 FILLER_10_793
*1316 FILLER_10_805
*1317 FILLER_10_811
*1318 FILLER_10_813
*1319 FILLER_10_825
*1320 FILLER_10_83
*1321 FILLER_10_837
*1322 FILLER_10_849
*1323 FILLER_10_85
*1324 FILLER_10_861
*1325 FILLER_10_867
*1326 FILLER_10_869
*1327 FILLER_10_881
*1328 FILLER_10_893
*1329 FILLER_10_905
*1330 FILLER_10_917
*1331 FILLER_10_923
*1332 FILLER_10_925
*1333 FILLER_10_937
*1334 FILLER_10_949
*1335 FILLER_10_97
*1336 FILLER_110_109
*1337 FILLER_110_121
*1338 FILLER_110_133
*1339 FILLER_110_139
*1340 FILLER_110_141
*1341 FILLER_110_15
*1342 FILLER_110_153
*1343 FILLER_110_165
*1344 FILLER_110_177
*1345 FILLER_110_189
*1346 FILLER_110_195
*1347 FILLER_110_197
*1348 FILLER_110_209
*1349 FILLER_110_221
*1350 FILLER_110_233
*1351 FILLER_110_245
*1352 FILLER_110_251
*1353 FILLER_110_253
*1354 FILLER_110_265
*1355 FILLER_110_27
*1356 FILLER_110_277
*1357 FILLER_110_289
*1358 FILLER_110_29
*1359 FILLER_110_3
*1360 FILLER_110_301
*1361 FILLER_110_307
*1362 FILLER_110_309
*1363 FILLER_110_321
*1364 FILLER_110_333
*1365 FILLER_110_345
*1366 FILLER_110_357
*1367 FILLER_110_363
*1368 FILLER_110_365
*1369 FILLER_110_377
*1370 FILLER_110_389
*1371 FILLER_110_401
*1372 FILLER_110_41
*1373 FILLER_110_413
*1374 FILLER_110_419
*1375 FILLER_110_421
*1376 FILLER_110_433
*1377 FILLER_110_445
*1378 FILLER_110_469
*1379 FILLER_110_475
*1380 FILLER_110_477
*1381 FILLER_110_489
*1382 FILLER_110_510
*1383 FILLER_110_522
*1384 FILLER_110_53
*1385 FILLER_110_530
*1386 FILLER_110_533
*1387 FILLER_110_545
*1388 FILLER_110_557
*1389 FILLER_110_569
*1390 FILLER_110_581
*1391 FILLER_110_587
*1392 FILLER_110_589
*1393 FILLER_110_601
*1394 FILLER_110_613
*1395 FILLER_110_625
*1396 FILLER_110_637
*1397 FILLER_110_643
*1398 FILLER_110_645
*1399 FILLER_110_65
*1400 FILLER_110_657
*1401 FILLER_110_669
*1402 FILLER_110_681
*1403 FILLER_110_693
*1404 FILLER_110_699
*1405 FILLER_110_701
*1406 FILLER_110_713
*1407 FILLER_110_725
*1408 FILLER_110_737
*1409 FILLER_110_749
*1410 FILLER_110_755
*1411 FILLER_110_757
*1412 FILLER_110_769
*1413 FILLER_110_77
*1414 FILLER_110_781
*1415 FILLER_110_793
*1416 FILLER_110_805
*1417 FILLER_110_811
*1418 FILLER_110_813
*1419 FILLER_110_825
*1420 FILLER_110_83
*1421 FILLER_110_837
*1422 FILLER_110_849
*1423 FILLER_110_85
*1424 FILLER_110_861
*1425 FILLER_110_867
*1426 FILLER_110_869
*1427 FILLER_110_881
*1428 FILLER_110_893
*1429 FILLER_110_905
*1430 FILLER_110_917
*1431 FILLER_110_923
*1432 FILLER_110_925
*1433 FILLER_110_937
*1434 FILLER_110_949
*1435 FILLER_110_97
*1436 FILLER_111_105
*1437 FILLER_111_111
*1438 FILLER_111_113
*1439 FILLER_111_125
*1440 FILLER_111_137
*1441 FILLER_111_149
*1442 FILLER_111_15
*1443 FILLER_111_161
*1444 FILLER_111_167
*1445 FILLER_111_169
*1446 FILLER_111_181
*1447 FILLER_111_193
*1448 FILLER_111_205
*1449 FILLER_111_217
*1450 FILLER_111_223
*1451 FILLER_111_225
*1452 FILLER_111_237
*1453 FILLER_111_249
*1454 FILLER_111_261
*1455 FILLER_111_27
*1456 FILLER_111_273
*1457 FILLER_111_279
*1458 FILLER_111_281
*1459 FILLER_111_293
*1460 FILLER_111_3
*1461 FILLER_111_305
*1462 FILLER_111_317
*1463 FILLER_111_329
*1464 FILLER_111_335
*1465 FILLER_111_337
*1466 FILLER_111_349
*1467 FILLER_111_361
*1468 FILLER_111_373
*1469 FILLER_111_385
*1470 FILLER_111_39
*1471 FILLER_111_391
*1472 FILLER_111_393
*1473 FILLER_111_405
*1474 FILLER_111_417
*1475 FILLER_111_425
*1476 FILLER_111_449
*1477 FILLER_111_461
*1478 FILLER_111_473
*1479 FILLER_111_497
*1480 FILLER_111_503
*1481 FILLER_111_505
*1482 FILLER_111_51
*1483 FILLER_111_517
*1484 FILLER_111_529
*1485 FILLER_111_541
*1486 FILLER_111_55
*1487 FILLER_111_553
*1488 FILLER_111_559
*1489 FILLER_111_561
*1490 FILLER_111_57
*1491 FILLER_111_573
*1492 FILLER_111_585
*1493 FILLER_111_597
*1494 FILLER_111_609
*1495 FILLER_111_615
*1496 FILLER_111_617
*1497 FILLER_111_629
*1498 FILLER_111_641
*1499 FILLER_111_653
*1500 FILLER_111_665
*1501 FILLER_111_671
*1502 FILLER_111_673
*1503 FILLER_111_685
*1504 FILLER_111_69
*1505 FILLER_111_697
*1506 FILLER_111_709
*1507 FILLER_111_721
*1508 FILLER_111_727
*1509 FILLER_111_729
*1510 FILLER_111_741
*1511 FILLER_111_753
*1512 FILLER_111_765