*SPEF "ieee 1481-1999"
*DESIGN "mult"
*DATE "02:09:27 Tuesday November 25, 2025"
*VENDOR "The OpenROAD Project"
*PROGRAM "OpenROAD"
*VERSION "edf00dff99f6c40d67a30c0e22a8191c5d2ed9d6"
*DESIGN_FLOW "NAME_SCOPE LOCAL" "PIN_CAP NONE"
*DIVIDER /
*DELIMITER :
*BUS_DELIMITER []
*T_UNIT 1 NS
*C_UNIT 1 PF
*R_UNIT 1 OHM
*L_UNIT 1 HENRY

*NAME_MAP
*3 a[0]
*4 a[1]
*5 a[2]
*6 a[3]
*7 a[4]
*8 a[5]
*9 a[6]
*10 a[7]
*11 b[0]
*12 b[1]
*13 b[2]
*14 b[3]
*15 b[4]
*16 b[5]
*17 b[6]
*18 b[7]
*19 clk
*20 product[0]
*21 product[10]
*22 product[11]
*23 product[12]
*24 product[13]
*25 product[14]
*26 product[15]
*27 product[1]
*28 product[2]
*29 product[3]
*30 product[4]
*31 product[5]
*32 product[6]
*33 product[7]
*34 product[8]
*35 product[9]
*36 rst
*37 _000_
*38 _001_
*39 _002_
*40 _003_
*41 _004_
*42 _005_
*43 _006_
*44 _007_
*45 _008_
*46 _009_
*47 _010_
*48 _011_
*49 _012_
*50 _013_
*51 _014_
*52 _015_
*53 _016_
*54 _017_
*55 _018_
*56 _019_
*57 _020_
*58 _021_
*59 _022_
*60 _023_
*61 _024_
*62 _025_
*63 _026_
*64 _027_
*65 _028_
*66 _029_
*67 _030_
*68 _031_
*69 _032_
*70 _033_
*71 _034_
*72 _035_
*73 _036_
*74 _037_
*75 _038_
*76 _039_
*77 _040_
*78 _041_
*79 _042_
*80 _043_
*81 _044_
*82 _045_
*83 _046_
*84 _047_
*85 _048_
*86 _049_
*87 _050_
*88 _051_
*89 _052_
*90 _053_
*91 _054_
*92 _055_
*93 _056_
*94 _057_
*95 _058_
*96 _059_
*97 _060_
*98 _061_
*99 _062_
*100 _063_
*101 _064_
*102 _065_
*103 _066_
*104 _067_
*105 _068_
*106 _069_
*107 _070_
*108 _071_
*109 _072_
*110 _073_
*111 _074_
*112 _075_
*113 _076_
*114 _077_
*115 _078_
*116 _079_
*117 _080_
*118 _081_
*119 _082_
*120 _083_
*121 _084_
*122 _085_
*123 _086_
*124 _087_
*125 _088_
*126 _089_
*127 _090_
*128 _091_
*129 _092_
*130 _093_
*131 _094_
*132 _095_
*133 _096_
*134 _097_
*135 _098_
*136 _099_
*137 _100_
*138 _101_
*139 _102_
*140 _103_
*141 _104_
*142 _105_
*143 _106_
*144 _107_
*145 _108_
*146 _109_
*147 _110_
*148 _111_
*149 _112_
*150 _113_
*151 _114_
*152 _115_
*153 _116_
*154 _117_
*155 _118_
*156 _119_
*157 _120_
*158 _121_
*159 _122_
*160 _123_
*161 _124_
*162 _125_
*163 _126_
*164 _127_
*165 _128_
*166 _129_
*167 _130_
*168 _131_
*169 _132_
*170 _133_
*171 _134_
*172 _135_
*173 _136_
*174 _137_
*175 _138_
*176 _139_
*177 _140_
*178 _141_
*179 _142_
*180 _143_
*181 _144_
*182 _145_
*183 _146_
*184 _147_
*185 _148_
*186 _149_
*187 _150_
*188 _151_
*189 _152_
*190 _153_
*191 _154_
*192 _155_
*193 _156_
*194 _157_
*195 _158_
*196 _159_
*197 _160_
*198 _161_
*199 _162_
*200 _163_
*201 _164_
*202 _165_
*203 _166_
*204 _167_
*205 _168_
*206 _169_
*207 _170_
*208 _171_
*209 _172_
*210 _173_
*211 _174_
*212 _175_
*213 _176_
*214 _177_
*215 _178_
*216 _179_
*217 _180_
*218 _181_
*219 _182_
*220 _183_
*221 _184_
*222 _185_
*223 _186_
*224 _187_
*225 _188_
*226 _189_
*227 _190_
*228 _191_
*229 _192_
*230 _193_
*231 _194_
*232 _195_
*233 _196_
*234 _197_
*235 _198_
*236 _199_
*237 _200_
*238 _201_
*239 _202_
*240 _203_
*241 _204_
*242 _205_
*243 _206_
*244 _207_
*245 _208_
*246 _209_
*247 _210_
*248 _211_
*249 _212_
*250 _213_
*251 _214_
*252 _215_
*253 _216_
*254 _217_
*255 _218_
*256 _219_
*257 _220_
*258 _221_
*259 _222_
*260 _223_
*261 _224_
*262 _225_
*263 _226_
*264 _227_
*265 _228_
*266 _229_
*267 _230_
*268 _231_
*269 _232_
*270 _233_
*271 _234_
*272 _235_
*273 _236_
*274 _237_
*275 _238_
*276 _239_
*277 _240_
*278 _241_
*279 _242_
*280 _243_
*281 _244_
*282 _245_
*283 _246_
*284 _247_
*285 _248_
*286 _249_
*287 _250_
*288 _251_
*289 _252_
*290 _253_
*291 _254_
*292 _255_
*293 _256_
*294 _257_
*295 _258_
*296 _259_
*297 _260_
*298 _261_
*299 _262_
*300 _263_
*301 _264_
*302 _265_
*303 _266_
*304 _267_
*305 _268_
*306 _269_
*307 _270_
*308 _271_
*309 _272_
*310 _273_
*311 _274_
*312 _275_
*313 _276_
*314 _277_
*315 _278_
*316 _279_
*317 _280_
*318 _281_
*319 _282_
*320 _283_
*321 _284_
*322 _285_
*323 _286_
*324 _287_
*325 _288_
*326 _289_
*327 _290_
*328 _291_
*329 _292_
*330 _293_
*331 _294_
*332 _295_
*333 _296_
*334 _297_
*335 _298_
*336 _299_
*337 _300_
*338 _301_
*339 _302_
*340 _303_
*341 _304_
*342 _305_
*343 _306_
*344 _307_
*345 _308_
*346 _309_
*347 _310_
*348 _311_
*349 _312_
*350 _313_
*351 _314_
*352 _315_
*353 _316_
*354 _317_
*355 _318_
*356 _319_
*357 _320_
*358 _321_
*359 _322_
*360 _323_
*361 _324_
*362 _325_
*363 _326_
*364 _327_
*365 _328_
*366 _329_
*367 _330_
*368 _331_
*369 _332_
*370 _333_
*371 _334_
*372 _335_
*373 _336_
*374 _337_
*375 _338_
*376 _339_
*377 _340_
*378 _341_
*379 _342_
*380 _343_
*381 _344_
*382 _345_
*383 _346_
*384 _347_
*385 _348_
*386 _349_
*387 _350_
*388 _351_
*389 _352_
*390 _353_
*391 _354_
*392 _355_
*393 _356_
*394 _357_
*395 _358_
*396 _359_
*397 _360_
*398 _361_
*399 _362_
*400 _363_
*401 _364_
*402 _365_
*403 _366_
*404 _367_
*405 _368_
*406 _369_
*407 _370_
*408 _371_
*409 _372_
*410 _373_
*411 _374_
*412 _375_
*413 _376_
*414 _377_
*415 _378_
*416 _379_
*417 _380_
*418 _381_
*419 a_high\[0\]
*420 a_high\[1\]
*421 a_high\[2\]
*422 a_high\[3\]
*423 a_low\[0\]
*424 a_low\[1\]
*425 a_low\[2\]
*426 a_low\[3\]
*427 b_high\[0\]
*428 b_high\[1\]
*429 b_high\[2\]
*430 b_high\[3\]
*431 b_low\[0\]
*432 b_low\[1\]
*433 b_low\[2\]
*434 b_low\[3\]
*435 clknet_0_clk
*436 clknet_3_0__leaf_clk
*437 clknet_3_1__leaf_clk
*438 clknet_3_2__leaf_clk
*439 clknet_3_3__leaf_clk
*440 clknet_3_4__leaf_clk
*441 clknet_3_5__leaf_clk
*442 clknet_3_6__leaf_clk
*443 clknet_3_7__leaf_clk
*444 middle_sum\[0\]
*445 middle_sum\[1\]
*446 middle_sum\[2\]
*447 middle_sum\[3\]
*448 middle_sum\[4\]
*449 middle_sum\[5\]
*450 middle_sum\[6\]
*451 middle_sum\[7\]
*452 net1
*453 net10
*454 net11
*455 net12
*456 net13
*457 net14
*458 net15
*459 net16
*460 net17
*461 net18
*462 net19
*463 net2
*464 net20
*465 net21
*466 net22
*467 net23
*468 net24
*469 net25
*470 net26
*471 net27
*472 net28
*473 net29
*474 net3
*475 net30
*476 net31
*477 net32
*478 net33
*479 net34
*480 net35
*481 net36
*482 net37
*483 net38
*484 net39
*485 net4
*486 net40
*487 net41
*488 net42
*489 net43
*490 net44
*491 net45
*492 net46
*493 net47
*494 net48
*495 net49
*496 net5
*497 net50
*498 net51
*499 net52
*500 net53
*501 net54
*502 net55
*503 net56
*504 net57
*505 net58
*506 net59
*507 net6
*508 net60
*509 net61
*510 net62
*511 net63
*512 net64
*513 net65
*514 net66
*515 net67
*516 net68
*517 net69
*518 net7
*519 net70
*520 net71
*521 net72
*522 net73
*523 net74
*524 net75
*525 net76
*526 net8
*527 net9
*528 pp0\[0\]
*529 pp0\[1\]
*530 pp0\[2\]
*531 pp0\[3\]
*532 pp0\[4\]
*533 pp0\[5\]
*534 pp0\[6\]
*535 pp0\[7\]
*536 pp1\[0\]
*537 pp1\[1\]
*538 pp1\[2\]
*539 pp1\[3\]
*540 pp1\[4\]
*541 pp1\[5\]
*542 pp1\[6\]
*543 pp1\[7\]
*544 pp2\[0\]
*545 pp2\[1\]
*546 pp2\[2\]
*547 pp2\[3\]
*548 pp2\[4\]
*549 pp2\[5\]
*550 pp2\[6\]
*551 pp2\[7\]
*552 pp3\[0\]
*553 pp3\[1\]
*554 pp3\[2\]
*555 pp3\[3\]
*556 pp3\[4\]
*557 pp3\[5\]
*558 pp3\[6\]
*559 pp3\[7\]
*560 FILLER_0_110
*561 FILLER_0_116
*562 FILLER_0_128
*563 FILLER_0_141
*564 FILLER_0_147
*565 FILLER_0_15
*566 FILLER_0_155
*567 FILLER_0_160
*568 FILLER_0_169
*569 FILLER_0_175
*570 FILLER_0_183
*571 FILLER_0_189
*572 FILLER_0_195
*573 FILLER_0_197
*574 FILLER_0_209
*575 FILLER_0_27
*576 FILLER_0_3
*577 FILLER_0_52
*578 FILLER_0_57
*579 FILLER_0_82
*580 FILLER_0_88
*581 FILLER_0_98
*582 FILLER_10_107
*583 FILLER_10_133
*584 FILLER_10_139
*585 FILLER_10_144
*586 FILLER_10_148
*587 FILLER_10_15
*588 FILLER_10_163
*589 FILLER_10_187
*590 FILLER_10_195
*591 FILLER_10_197
*592 FILLER_10_209
*593 FILLER_10_26
*594 FILLER_10_29
*595 FILLER_10_3
*596 FILLER_10_41
*597 FILLER_10_55
*598 FILLER_10_78
*599 FILLER_10_91
*600 FILLER_10_99
*601 FILLER_11_113
*602 FILLER_11_12
*603 FILLER_11_121
*604 FILLER_11_126
*605 FILLER_11_155
*606 FILLER_11_159
*607 FILLER_11_167
*608 FILLER_11_169
*609 FILLER_11_181
*610 FILLER_11_193
*611 FILLER_11_205
*612 FILLER_11_213
*613 FILLER_11_54
*614 FILLER_11_6
*615 FILLER_11_62
*616 FILLER_12_11
*617 FILLER_12_111
*618 FILLER_12_123
*619 FILLER_12_135
*620 FILLER_12_139
*621 FILLER_12_15
*622 FILLER_12_152
*623 FILLER_12_158
*624 FILLER_12_179
*625 FILLER_12_191
*626 FILLER_12_195
*627 FILLER_12_197
*628 FILLER_12_205
*629 FILLER_12_210
*630 FILLER_12_214
*631 FILLER_12_27
*632 FILLER_12_3
*633 FILLER_12_66
*634 FILLER_12_79
*635 FILLER_12_83
*636 FILLER_12_92
*637 FILLER_12_97
*638 FILLER_13_100
*639 FILLER_13_116
*640 FILLER_13_162
*641 FILLER_13_169
*642 FILLER_13_178
*643 FILLER_13_184
*644 FILLER_13_192
*645 FILLER_13_23
*646 FILLER_13_31
*647 FILLER_13_49
*648 FILLER_13_57
*649 FILLER_13_66
*650 FILLER_13_78
*651 FILLER_13_90
*652 FILLER_14_102
*653 FILLER_14_113
*654 FILLER_14_141
*655 FILLER_14_151
*656 FILLER_14_159
*657 FILLER_14_18
*658 FILLER_14_181
*659 FILLER_14_195
*660 FILLER_14_197
*661 FILLER_14_209
*662 FILLER_14_26
*663 FILLER_14_29
*664 FILLER_14_6
*665 FILLER_14_64
*666 FILLER_14_72
*667 FILLER_14_83
*668 FILLER_14_85
*669 FILLER_14_94
*670 FILLER_15_116
*671 FILLER_15_128
*672 FILLER_15_140
*673 FILLER_15_146
*674 FILLER_15_15
*675 FILLER_15_158
*676 FILLER_15_166
*677 FILLER_15_169
*678 FILLER_15_181
*679 FILLER_15_188
*680 FILLER_15_200
*681 FILLER_15_212
*682 FILLER_15_27
*683 FILLER_15_3
*684 FILLER_15_35
*685 FILLER_15_53
*686 FILLER_15_57
*687 FILLER_15_61
*688 FILLER_15_75
*689 FILLER_15_87
*690 FILLER_15_91
*691 FILLER_16_123
*692 FILLER_16_127
*693 FILLER_16_133
*694 FILLER_16_139
*695 FILLER_16_15
*696 FILLER_16_152
*697 FILLER_16_176
*698 FILLER_16_188
*699 FILLER_16_197
*700 FILLER_16_205
*701 FILLER_16_210
*702 FILLER_16_27
*703 FILLER_16_29
*704 FILLER_16_3
*705 FILLER_16_41
*706 FILLER_16_51
*707 FILLER_16_68
*708 FILLER_16_76
*709 FILLER_16_85
*710 FILLER_16_97
*711 FILLER_17_108
*712 FILLER_17_144
*713 FILLER_17_15
*714 FILLER_17_156
*715 FILLER_17_169
*716 FILLER_17_191
*717 FILLER_17_27
*718 FILLER_17_3
*719 FILLER_17_39
*720 FILLER_17_51
*721 FILLER_17_55
*722 FILLER_17_57
*723 FILLER_17_69
*724 FILLER_17_96
*725 FILLER_18_107
*726 FILLER_18_139
*727 FILLER_18_15
*728 FILLER_18_154
*729 FILLER_18_188
*730 FILLER_18_197
*731 FILLER_18_209
*732 FILLER_18_3
*733 FILLER_18_41
*734 FILLER_18_49
*735 FILLER_18_62
*736 FILLER_18_74
*737 FILLER_18_82
*738 FILLER_18_91
*739 FILLER_19_11
*740 FILLER_19_133
*741 FILLER_19_147
*742 FILLER_19_159
*743 FILLER_19_167
*744 FILLER_19_169
*745 FILLER_19_181
*746 FILLER_19_193
*747 FILLER_19_205
*748 FILLER_19_213
*749 FILLER_19_3
*750 FILLER_19_68
*751 FILLER_19_76
*752 FILLER_1_144
*753 FILLER_1_15
*754 FILLER_1_166
*755 FILLER_1_172
*756 FILLER_1_184
*757 FILLER_1_196
*758 FILLER_1_208
*759 FILLER_1_214
*760 FILLER_1_27
*761 FILLER_1_3
*762 FILLER_1_34
*763 FILLER_1_60
*764 FILLER_20_122
*765 FILLER_20_126
*766 FILLER_20_135
*767 FILLER_20_139
*768 FILLER_20_141
*769 FILLER_20_147
*770 FILLER_20_15
*771 FILLER_20_168
*772 FILLER_20_180
*773 FILLER_20_19
*774 FILLER_20_192
*775 FILLER_20_197
*776 FILLER_20_205
*777 FILLER_20_213
*778 FILLER_20_3
*779 FILLER_20_43
*780 FILLER_20_64
*781 FILLER_20_80
*782 FILLER_20_85
*783 FILLER_21_104
*784 FILLER_21_108
*785 FILLER_21_11
*786 FILLER_21_113
*787 FILLER_21_127
*788 FILLER_21_144
*789 FILLER_21_167
*790 FILLER_21_175
*791 FILLER_21_187
*792 FILLER_21_3
*793 FILLER_21_35
*794 FILLER_21_50
*795 FILLER_21_54
*796 FILLER_21_61
*797 FILLER_21_72
*798 FILLER_21_84
*799 FILLER_21_96
*800 FILLER_22_114
*801 FILLER_22_118
*802 FILLER_22_122
*803 FILLER_22_126
*804 FILLER_22_138
*805 FILLER_22_141
*806 FILLER_22_15
*807 FILLER_22_192
*808 FILLER_22_197
*809 FILLER_22_203
*810 FILLER_22_23
*811 FILLER_22_3
*812 FILLER_22_36
*813 FILLER_22_43
*814 FILLER_22_55
*815 FILLER_22_70
*816 FILLER_22_82
*817 FILLER_22_85
*818 FILLER_22_90
*819 FILLER_23_102
*820 FILLER_23_110
*821 FILLER_23_113
*822 FILLER_23_119
*823 FILLER_23_136
*824 FILLER_23_165
*825 FILLER_23_169
*826 FILLER_23_177
*827 FILLER_23_190
*828 FILLER_23_194
*829 FILLER_23_3
*830 FILLER_23_33
*831 FILLER_23_45
*832 FILLER_23_69
*833 FILLER_24_102
*834 FILLER_24_11
*835 FILLER_24_114
*836 FILLER_24_120
*837 FILLER_24_132
*838 FILLER_24_141
*839 FILLER_24_156
*840 FILLER_24_164
*841 FILLER_24_173
*842 FILLER_24_187
*843 FILLER_24_195
*844 FILLER_24_197
*845 FILLER_24_205
*846 FILLER_24_210
*847 FILLER_24_25
*848 FILLER_24_3
*849 FILLER_24_35
*850 FILLER_24_56
*851 FILLER_24_85
*852 FILLER_25_102
*853 FILLER_25_113
*854 FILLER_25_127
*855 FILLER_25_139
*856 FILLER_25_163
*857 FILLER_25_167
*858 FILLER_25_169
*859 FILLER_25_177
*860 FILLER_25_183
*861 FILLER_25_3
*862 FILLER_25_34
*863 FILLER_25_47
*864 FILLER_25_57
*865 FILLER_25_93
*866 FILLER_26_100
*867 FILLER_26_112
*868 FILLER_26_124
*869 FILLER_26_136
*870 FILLER_26_15
*871 FILLER_26_195
*872 FILLER_26_197
*873 FILLER_26_209
*874 FILLER_26_27
*875 FILLER_26_29
*876 FILLER_26_3
*877 FILLER_26_35
*878 FILLER_26_43
*879 FILLER_26_51
*880 FILLER_26_75
*881 FILLER_26_83
*882 FILLER_27_100
*883 FILLER_27_111
*884 FILLER_27_121
*885 FILLER_27_133
*886 FILLER_27_137
*887 FILLER_27_15
*888 FILLER_27_161
*889 FILLER_27_167
*890 FILLER_27_177
*891 FILLER_27_183
*892 FILLER_27_205
*893 FILLER_27_210
*894 FILLER_27_27
*895 FILLER_27_3
*896 FILLER_27_51
*897 FILLER_27_55
*898 FILLER_27_64
*899 FILLER_27_76
*900 FILLER_27_80
*901 FILLER_28_109
*902 FILLER_28_128
*903 FILLER_28_136
*904 FILLER_28_161
*905 FILLER_28_165
*906 FILLER_28_169
*907 FILLER_28_181
*908 FILLER_28_193
*909 FILLER_28_200
*910 FILLER_28_212
*911 FILLER_28_26
*912 FILLER_28_36
*913 FILLER_28_57
*914 FILLER_28_80
*915 FILLER_29_111
*916 FILLER_29_113
*917 FILLER_29_121
*918 FILLER_29_126
*919 FILLER_29_15
*920 FILLER_29_155
*921 FILLER_29_166
*922 FILLER_29_184
*923 FILLER_29_196
*924 FILLER_29_208
*925 FILLER_29_27
*926 FILLER_29_39
*927 FILLER_29_44
*928 FILLER_29_50
*929 FILLER_29_6
*930 FILLER_29_83
*931 FILLER_29_99
*932 FILLER_2_15
*933 FILLER_2_181
*934 FILLER_2_193
*935 FILLER_2_197
*936 FILLER_2_209
*937 FILLER_2_27
*938 FILLER_2_29
*939 FILLER_2_3
*940 FILLER_2_37
*941 FILLER_2_43
*942 FILLER_2_55
*943 FILLER_30_106
*944 FILLER_30_118
*945 FILLER_30_130
*946 FILLER_30_138
*947 FILLER_30_141
*948 FILLER_30_153
*949 FILLER_30_165
*950 FILLER_30_177
*951 FILLER_30_189
*952 FILLER_30_195
*953 FILLER_30_197
*954 FILLER_30_209
*955 FILLER_30_23
*956 FILLER_30_27
*957 FILLER_30_32
*958 FILLER_30_44
*959 FILLER_30_56
*960 FILLER_30_68
*961 FILLER_30_76
*962 FILLER_30_90
*963 FILLER_30_94
*964 FILLER_31_104
*965 FILLER_31_109
*966 FILLER_31_127
*967 FILLER_31_133
*968 FILLER_31_157
*969 FILLER_31_179
*970 FILLER_31_204
*971 FILLER_31_210
*972 FILLER_31_35
*973 FILLER_31_47
*974 FILLER_31_55
*975 FILLER_31_57
*976 FILLER_31_65
*977 FILLER_31_78
*978 FILLER_31_9
*979 FILLER_31_92
*980 FILLER_32_100
*981 FILLER_32_112
*982 FILLER_32_122
*983 FILLER_32_134
*984 FILLER_32_141
*985 FILLER_32_147
*986 FILLER_32_168
*987 FILLER_32_176
*988 FILLER_32_180
*989 FILLER_32_192
*990 FILLER_32_197
*991 FILLER_32_205
*992 FILLER_32_209
*993 FILLER_32_23
*994 FILLER_32_27
*995 FILLER_32_29
*996 FILLER_32_41
*997 FILLER_32_53
*998 FILLER_32_61
*999 FILLER_32_85
*1000 FILLER_33_120
*1001 FILLER_33_132
*1002 FILLER_33_189
*1003 FILLER_33_54
*1004 FILLER_33_57
*1005 FILLER_33_6
*1006 FILLER_33_61
*1007 FILLER_33_97
*1008 FILLER_34_110
*1009 FILLER_34_135
*1010 FILLER_34_15
*1011 FILLER_34_184
*1012 FILLER_34_197
*1013 FILLER_34_209
*1014 FILLER_34_27
*1015 FILLER_34_29
*1016 FILLER_34_3
*1017 FILLER_34_33
*1018 FILLER_34_41
*1019 FILLER_34_65
*1020 FILLER_34_73
*1021 FILLER_34_83
*1022 FILLER_35_111
*1023 FILLER_35_113
*1024 FILLER_35_125
*1025 FILLER_35_137
*1026 FILLER_35_141
*1027 FILLER_35_149
*1028 FILLER_35_15
*1029 FILLER_35_166
*1030 FILLER_35_169
*1031 FILLER_35_177
*1032 FILLER_35_182
*1033 FILLER_35_189
*1034 FILLER_35_195
*1035 FILLER_35_197
*1036 FILLER_35_209
*1037 FILLER_35_23
*1038 FILLER_35_27
*1039 FILLER_35_29
*1040 FILLER_35_3
*1041 FILLER_35_37
*1042 FILLER_35_41
*1043 FILLER_35_51
*1044 FILLER_35_55
*1045 FILLER_35_57
*1046 FILLER_35_69
*1047 FILLER_35_81
*1048 FILLER_35_85
*1049 FILLER_35_93
*1050 FILLER_35_99
*1051 FILLER_3_105
*1052 FILLER_3_11
*1053 FILLER_3_111
*1054 FILLER_3_118
*1055 FILLER_3_126
*1056 FILLER_3_132
*1057 FILLER_3_136
*1058 FILLER_3_140
*1059 FILLER_3_15
*1060 FILLER_3_155
*1061 FILLER_3_164
*1062 FILLER_3_177
*1063 FILLER_3_189
*1064 FILLER_3_201
*1065 FILLER_3_213
*1066 FILLER_3_27
*1067 FILLER_3_3
*1068 FILLER_3_39
*1069 FILLER_3_51
*1070 FILLER_3_55
*1071 FILLER_3_57
*1072 FILLER_3_69
*1073 FILLER_3_81
*1074 FILLER_3_93
*1075 FILLER_4_103
*1076 FILLER_4_115
*1077 FILLER_4_129
*1078 FILLER_4_137
*1079 FILLER_4_141
*1080 FILLER_4_153
*1081 FILLER_4_165
*1082 FILLER_4_177
*1083 FILLER_4_189
*1084 FILLER_4_195
*1085 FILLER_4_197
*1086 FILLER_4_209
*1087 FILLER_4_23
*1088 FILLER_4_27
*1089 FILLER_4_29
*1090 FILLER_4_41
*1091 FILLER_4_53
*1092 FILLER_4_58
*1093 FILLER_4_70
*1094 FILLER_4_82
*1095 FILLER_4_85
*1096 FILLER_5_106
*1097 FILLER_5_120
*1098 FILLER_5_132
*1099 FILLER_5_144
*1100 FILLER_5_15
*1101 FILLER_5_156
*1102 FILLER_5_169
*1103 FILLER_5_181
*1104 FILLER_5_19
*1105 FILLER_5_193
*1106 FILLER_5_31
*1107 FILLER_5_43
*1108 FILLER_5_54
*1109 FILLER_5_66
*1110 FILLER_5_85
*1111 FILLER_5_9
*1112 FILLER_6_119
*1113 FILLER_6_134
*1114 FILLER_6_141
*1115 FILLER_6_149
*1116 FILLER_6_153
*1117 FILLER_6_177
*1118 FILLER_6_189
*1119 FILLER_6_195
*1120 FILLER_6_197
*1121 FILLER_6_213
*1122 FILLER_6_25
*1123 FILLER_6_29
*1124 FILLER_6_3
*1125 FILLER_6_37
*1126 FILLER_6_72
*1127 FILLER_6_93
*1128 FILLER_7_104
*1129 FILLER_7_12
*1130 FILLER_7_124
*1131 FILLER_7_132
*1132 FILLER_7_160
*1133 FILLER_7_172
*1134 FILLER_7_184
*1135 FILLER_7_192
*1136 FILLER_7_33
*1137 FILLER_7_6
*1138 FILLER_7_92
*1139 FILLER_8_100
*1140 FILLER_8_113
*1141 FILLER_8_125
*1142 FILLER_8_202
*1143 FILLER_8_26
*1144 FILLER_8_29
*1145 FILLER_8_41
*1146 FILLER_8_45
*1147 FILLER_8_50
*1148 FILLER_8_65
*1149 FILLER_8_71
*1150 FILLER_8_78
*1151 FILLER_9_105
*1152 FILLER_9_120
*1153 FILLER_9_126
*1154 FILLER_9_147
*1155 FILLER_9_15
*1156 FILLER_9_155
*1157 FILLER_9_162
*1158 FILLER_9_172
*1159 FILLER_9_178
*1160 FILLER_9_184
*1161 FILLER_9_199
*1162 FILLER_9_27
*1163 FILLER_9_39
*1164 FILLER_9_47
*1165 FILLER_9_53
*1166 FILLER_9_57
*1167 FILLER_9_6
*1168 FILLER_9_65
*1169 FILLER_9_73
*1170 FILLER_9_81
*1171 FILLER_9_93
*1172 PHY_EDGE_ROW_0_Left_36
*1173 PHY_EDGE_ROW_0_Right_0
*1174 PHY_EDGE_ROW_10_Left_46
*1175 PHY_EDGE_ROW_10_Right_10
*1176 PHY_EDGE_ROW_11_Left_47
*1177 PHY_EDGE_ROW_11_Right_11
*1178 PHY_EDGE_ROW_12_Left_48
*1179 PHY_EDGE_ROW_12_Right_12
*1180 PHY_EDGE_ROW_13_Left_49
*1181 PHY_EDGE_ROW_13_Right_13
*1182 PHY_EDGE_ROW_14_Left_50
*1183 PHY_EDGE_ROW_14_Right_14
*1184 PHY_EDGE_ROW_15_Left_51
*1185 PHY_EDGE_ROW_15_Right_15
*1186 PHY_EDGE_ROW_16_Left_52
*1187 PHY_EDGE_ROW_16_Right_16
*1188 PHY_EDGE_ROW_17_Left_53
*1189 PHY_EDGE_ROW_17_Right_17
*1190 PHY_EDGE_ROW_18_Left_54
*1191 PHY_EDGE_ROW_18_Right_18
*1192 PHY_EDGE_ROW_19_Left_55
*1193 PHY_EDGE_ROW_19_Right_19
*1194 PHY_EDGE_ROW_1_Left_37
*1195 PHY_EDGE_ROW_1_Right_1
*1196 PHY_EDGE_ROW_20_Left_56
*1197 PHY_EDGE_ROW_20_Right_20
*1198 PHY_EDGE_ROW_21_Left_57
*1199 PHY_EDGE_ROW_21_Right_21
*1200 PHY_EDGE_ROW_22_Left_58
*1201 PHY_EDGE_ROW_22_Right_22
*1202 PHY_EDGE_ROW_23_Left_59
*1203 PHY_EDGE_ROW_23_Right_23
*1204 PHY_EDGE_ROW_24_Left_60
*1205 PHY_EDGE_ROW_24_Right_24
*1206 PHY_EDGE_ROW_25_Left_61
*1207 PHY_EDGE_ROW_25_Right_25
*1208 PHY_EDGE_ROW_26_Left_62
*1209 PHY_EDGE_ROW_26_Right_26
*1210 PHY_EDGE_ROW_27_Left_63
*1211 PHY_EDGE_ROW_27_Right_27
*1212 PHY_EDGE_ROW_28_Left_64
*1213 PHY_EDGE_ROW_28_Right_28
*1214 PHY_EDGE_ROW_29_Left_65
*1215 PHY_EDGE_ROW_29_Right_29
*1216 PHY_EDGE_ROW_2_Left_38
*1217 PHY_EDGE_ROW_2_Right_2
*1218 PHY_EDGE_ROW_30_Left_66
*1219 PHY_EDGE_ROW_30_Right_30
*1220 PHY_EDGE_ROW_31_Left_67
*1221 PHY_EDGE_ROW_31_Right_31
*1222 PHY_EDGE_ROW_32_Left_68
*1223 PHY_EDGE_ROW_32_Right_32
*1224 PHY_EDGE_ROW_33_Left_69
*1225 PHY_EDGE_ROW_33_Right_33
*1226 PHY_EDGE_ROW_34_Left_70
*1227 PHY_EDGE_ROW_34_Right_34
*1228 PHY_EDGE_ROW_35_Left_71
*1229 PHY_EDGE_ROW_35_Right_35
*1230 PHY_EDGE_ROW_3_Left_39
*1231 PHY_EDGE_ROW_3_Right_3
*1232 PHY_EDGE_ROW_4_Left_40
*1233 PHY_EDGE_ROW_4_Right_4
*1234 PHY_EDGE_ROW_5_Left_41
*1235 PHY_EDGE_ROW_5_Right_5
*1236 PHY_EDGE_ROW_6_Left_42
*1237 PHY_EDGE_ROW_6_Right_6
*1238 PHY_EDGE_ROW_7_Left_43
*1239 PHY_EDGE_ROW_7_Right_7
*1240 PHY_EDGE_ROW_8_Left_44
*1241 PHY_EDGE_ROW_8_Right_8
*1242 PHY_EDGE_ROW_9_Left_45
*1243 PHY_EDGE_ROW_9_Right_9
*1244 TAP_TAPCELL_ROW_0_72
*1245 TAP_TAPCELL_ROW_0_73
*1246 TAP_TAPCELL_ROW_0_74
*1247 TAP_TAPCELL_ROW_0_75
*1248 TAP_TAPCELL_ROW_0_76
*1249 TAP_TAPCELL_ROW_0_77
*1250 TAP_TAPCELL_ROW_0_78
*1251 TAP_TAPCELL_ROW_10_110
*1252 TAP_TAPCELL_ROW_10_111
*1253 TAP_TAPCELL_ROW_10_112
*1254 TAP_TAPCELL_ROW_10_113
*1255 TAP_TAPCELL_ROW_11_114
*1256 TAP_TAPCELL_ROW_11_115
*1257 TAP_TAPCELL_ROW_11_116
*1258 TAP_TAPCELL_ROW_12_117
*1259 TAP_TAPCELL_ROW_12_118
*1260 TAP_TAPCELL_ROW_12_119
*1261 TAP_TAPCELL_ROW_12_120
*1262 TAP_TAPCELL_ROW_13_121
*1263 TAP_TAPCELL_ROW_13_122
*1264 TAP_TAPCELL_ROW_13_123
*1265 TAP_TAPCELL_ROW_14_124
*1266 TAP_TAPCELL_ROW_14_125
*1267 TAP_TAPCELL_ROW_14_126
*1268 TAP_TAPCELL_ROW_14_127
*1269 TAP_TAPCELL_ROW_15_128
*1270 TAP_TAPCELL_ROW_15_129
*1271 TAP_TAPCELL_ROW_15_130
*1272 TAP_TAPCELL_ROW_16_131
*1273 TAP_TAPCELL_ROW_16_132
*1274 TAP_TAPCELL_ROW_16_133
*1275 TAP_TAPCELL_ROW_16_134
*1276 TAP_TAPCELL_ROW_17_135
*1277 TAP_TAPCELL_ROW_17_136
*1278 TAP_TAPCELL_ROW_17_137
*1279 TAP_TAPCELL_ROW_18_138
*1280 TAP_TAPCELL_ROW_18_139
*1281 TAP_TAPCELL_ROW_18_140
*1282 TAP_TAPCELL_ROW_18_141
*1283 TAP_TAPCELL_ROW_19_142
*1284 TAP_TAPCELL_ROW_19_143
*1285 TAP_TAPCELL_ROW_19_144
*1286 TAP_TAPCELL_ROW_1_79
*1287 TAP_TAPCELL_ROW_1_80
*1288 TAP_TAPCELL_ROW_1_81
*1289 TAP_TAPCELL_ROW_20_145
*1290 TAP_TAPCELL_ROW_20_146
*1291 TAP_TAPCELL_ROW_20_147
*1292 TAP_TAPCELL_ROW_20_148
*1293 TAP_TAPCELL_ROW_21_149
*1294 TAP_TAPCELL_ROW_21_150
*1295 TAP_TAPCELL_ROW_21_151
*1296 TAP_TAPCELL_ROW_22_152
*1297 TAP_TAPCELL_ROW_22_153
*1298 TAP_TAPCELL_ROW_22_154
*1299 TAP_TAPCELL_ROW_22_155
*1300 TAP_TAPCELL_ROW_23_156
*1301 TAP_TAPCELL_ROW_23_157
*1302 TAP_TAPCELL_ROW_23_158
*1303 TAP_TAPCELL_ROW_24_159
*1304 TAP_TAPCELL_ROW_24_160
*1305 TAP_TAPCELL_ROW_24_161
*1306 TAP_TAPCELL_ROW_24_162
*1307 TAP_TAPCELL_ROW_25_163
*1308 TAP_TAPCELL_ROW_25_164
*1309 TAP_TAPCELL_ROW_25_165
*1310 TAP_TAPCELL_ROW_26_166
*1311 TAP_TAPCELL_ROW_26_167
*1312 TAP_TAPCELL_ROW_26_168
*1313 TAP_TAPCELL_ROW_26_169
*1314 TAP_TAPCELL_ROW_27_170
*1315 TAP_TAPCELL_ROW_27_171
*1316 TAP_TAPCELL_ROW_27_172
*1317 TAP_TAPCELL_ROW_28_173
*1318 TAP_TAPCELL_ROW_28_174
*1319 TAP_TAPCELL_ROW_28_175
*1320 TAP_TAPCELL_ROW_28_176
*1321 TAP_TAPCELL_ROW_29_177
*1322 TAP_TAPCELL_ROW_29_178
*1323 TAP_TAPCELL_ROW_29_179
*1324 TAP_TAPCELL_ROW_2_82
*1325 TAP_TAPCELL_ROW_2_83
*1326 TAP_TAPCELL_ROW_2_84
*1327 TAP_TAPCELL_ROW_2_85
*1328 TAP_TAPCELL_ROW_30_180
*1329 TAP_TAPCELL_ROW_30_181
*1330 TAP_TAPCELL_ROW_30_182
*1331 TAP_TAPCELL_ROW_30_183
*1332 TAP_TAPCELL_ROW_31_184
*1333 TAP_TAPCELL_ROW_31_185
*1334 TAP_TAPCELL_ROW_31_186
*1335 TAP_TAPCELL_ROW_32_187
*1336 TAP_TAPCELL_ROW_32_188
*1337 TAP_TAPCELL_ROW_32_189
*1338 TAP_TAPCELL_ROW_32_190
*1339 TAP_TAPCELL_ROW_33_191
*1340 TAP_TAPCELL_ROW_33_192
*1341 TAP_TAPCELL_ROW_33_193
*1342 TAP_TAPCELL_ROW_34_194
*1343 TAP_TAPCELL_ROW_34_195
*1344 TAP_TAPCELL_ROW_34_196
*1345 TAP_TAPCELL_ROW_34_197
*1346 TAP_TAPCELL_ROW_35_198
*1347 TAP_TAPCELL_ROW_35_199
*1348 TAP_TAPCELL_ROW_35_200
*1349 TAP_TAPCELL_ROW_35_201
*1350 TAP_TAPCELL_ROW_35_202
*1351 TAP_TAPCELL_ROW_35_203
*1352 TAP_TAPCELL_ROW_35_204
*1353 TAP_TAPCELL_ROW_3_86
*1354 TAP_TAPCELL_ROW_3_87
*1355 TAP_TAPCELL_ROW_3_88
*1356 TAP_TAPCELL_ROW_4_89
*1357 TAP_TAPCELL_ROW_4_90
*1358 TAP_TAPCELL_ROW_4_91
*1359 TAP_TAPCELL_ROW_4_92
*1360 TAP_TAPCELL_ROW_5_93
*1361 TAP_TAPCELL_ROW_5_94
*1362 TAP_TAPCELL_ROW_5_95
*1363 TAP_TAPCELL_ROW_6_96
*1364 TAP_TAPCELL_ROW_6_97
*1365 TAP_TAPCELL_ROW_6_98
*1366 TAP_TAPCELL_ROW_6_99
*1367 TAP_TAPCELL_ROW_7_100
*1368 TAP_TAPCELL_ROW_7_101
*1369 TAP_TAPCELL_ROW_7_102
*1370 TAP_TAPCELL_ROW_8_103
*1371 TAP_TAPCELL_ROW_8_104
*1372 TAP_TAPCELL_ROW_8_105
*1373 TAP_TAPCELL_ROW_8_106
*1374 TAP_TAPCELL_ROW_9_107
*1375 TAP_TAPCELL_ROW_9_108
*1376 TAP_TAPCELL_ROW_9_109
*1377 _382_
*1378 _383_
*1379 _384_
*1380 _385_
*1381 _386_
*1382 _387_
*1383 _388_
*1384 _389_
*1385 _390_
*1386 _391_
*1387 _392_
*1388 _393_
*1389 _394_
*1390 _395_
*1391 _396_
*1392 _397_
*1393 _398_
*1394 _399_
*1395 _400_
*1396 _401_
*1397 _402_
*1398 _403_
*1399 _404_
*1400 _405_
*1401 _406_
*1402 _407_
*1403 _408_
*1404 _409_
*1405 _410_
*1406 _411_
*1407 _412_
*1408 _413_
*1409 _414_
*1410 _415_
*1411 _416_
*1412 _417_
*1413 _418_
*1414 _419_
*1415 _420_
*1416 _421_
*1417 _422_
*1418 _423_
*1419 _424_
*1420 _425_
*1421 _426_
*1422 _427_
*1423 _428_
*1424 _429_
*1425 _430_
*1426 _431_
*1427 _432_
*1428 _433_
*1429 _434_
*1430 _435_
*1431 _436_
*1432 _437_
*1433 _438_
*1434 _439_
*1435 _440_
*1436 _441_
*1437 _442_
*1438 _443_
*1439 _444_
*1440 _445_
*1441 _446_
*1442 _447_
*1443 _448_
*1444 _449_
*1445 _450_
*1446 _451_
*1447 _452_
*1448 _453_
*1449 _454_
*1450 _455_
*1451 _456_
*1452 _457_
*1453 _458_
*1454 _459_
*1455 _460_
*1456 _461_
*1457 _462_
*1458 _463_
*1459 _464_
*1460 _465_
*1461 _466_
*1462 _467_
*1463 _468_
*1464 _469_
*1465 _470_
*1466 _471_
*1467 _472_
*1468 _473_
*1469 _474_
*1470 _475_
*1471 _476_
*1472 _477_
*1473 _478_
*1474 _479_
*1475 _480_
*1476 _481_
*1477 _482_
*1478 _483_
*1479 _484_
*1480 _485_
*1481 _486_
*1482 _487_
*1483 _488_
*1484 _489_
*1485 _490_
*1486 _491_
*1487 _492_
*1488 _493_
*1489 _494_
*1490 _495_
*1491 _496_
*1492 _497_
*1493 _498_
*1494 _499_
*1495 _500_
*1496 _501_
*1497 _502_
*1498 _503_
*1499 _504_
*1500 _505_
*1501 _506_
*1502 _507_
*1503 _508_
*1504 _509_
*1505 _510_
*1506 _511_
*1507 _512_
*1508 _513_
*1509 _514_
*1510 _515_
*1511 _516_
*1512 _517_
*1513 _518_
*1514 _519_
*1515 _520_
*1516 _521_
*1517 _522_
*1518 _523_
*1519 _524_
*1520 _525_
*1521 _526_
*1522 _527_
*1523 _528_
*1524 _529_
*1525 _530_
*1526 _531_
*1527 _532_
*1528 _533_
*1529 _534_
*1530 _535_
*1531 _536_
*1532 _537_
*1533 _538_
*1534 _539_
*1535 _540_
*1536 _541_
*1537 _542_
*1538 _543_
*1539 _544_
*1540 _545_
*1541 _546_
*1542 _547_
*1543 _548_
*1544 _549_
*1545 _550_
*1546 _551_
*1547 _552_
*1548 _553_
*1549 _554_
*1550 _555_
*1551 _556_
*1552 _557_
*1553 _558_
*1554 _559_
*1555 _560_
*1556 _561_
*1557 _562_
*1558 _563_
*1559 _564_
*1560 _565_
*1561 _566_
*1562 _567_
*1563 _568_
*1564 _569_
*1565 _570_
*1566 _571_
*1567 _572_
*1568 _573_
*1569 _574_
*1570 _575_
*1571 _576_
*1572 _577_
*1573 _578_
*1574 _579_
*1575 _580_
*1576 _581_
*1577 _582_
*1578 _583_
*1579 _584_
*1580 _585_
*1581 _586_
*1582 _587_
*1583 _588_
*1584 _589_
*1585 _590_
*1586 _591_
*1587 _592_
*1588 _593_
*1589 _594_
*1590 _595_
*1591 _596_
*1592 _597_
*1593 _598_
*1594 _599_
*1595 _600_
*1596 _601_
*1597 _602_
*1598 _603_
*1599 _604_
*1600 _605_
*1601 _606_
*1602 _607_
*1603 _608_
*1604 _609_
*1605 _610_
*1606 _611_
*1607 _612_
*1608 _613_
*1609 _614_
*1610 _615_
*1611 _616_
*1612 _617_
*1613 _618_
*1614 _619_
*1615 _620_
*1616 _621_
*1617 _622_
*1618 _623_
*1619 _624_
*1620 _625_
*1621 _626_
*1622 _627_
*1623 _628_
*1624 _629_
*1625 _630_
*1626 _631_
*1627 _632_
*1628 _633_
*1629 _634_
*1630 _635_
*1631 _636_
*1632 _637_
*1633 _638_
*1634 _639_
*1635 _640_
*1636 _641_
*1637 _642_
*1638 _643_
*1639 _644_
*1640 _645_
*1641 _646_
*1642 _647_
*1643 _648_
*1644 _649_
*1645 _650_
*1646 _651_
*1647 _652_
*1648 _653_
*1649 _654_
*1650 _655_
*1651 _656_
*1652 _657_
*1653 _658_
*1654 _659_
*1655 _660_
*1656 _661_
*1657 _662_
*1658 _663_
*1659 _664_
*1660 _665_
*1661 _666_
*1662 _667_
*1663 _668_
*1664 _669_
*1665 _670_
*1666 _671_
*1667 _672_
*1668 _673_
*1669 _674_
*1670 _675_
*1671 _676_
*1672 _677_
*1673 _678_
*1674 _679_
*1675 _680_
*1676 _681_
*1677 _682_
*1678 _683_
*1679 _684_
*1680 _685_
*1681 _686_
*1682 _687_
*1683 _688_
*1684 _689_
*1685 _690_
*1686 _691_
*1687 _692_
*1688 _693_
*1689 _694_
*1690 _695_
*1691 _696_
*1692 _697_
*1693 _698_
*1694 _699_
*1695 _700_
*1696 _701_
*1697 _702_
*1698 _703_
*1699 _704_
*1700 _705_
*1701 _706_
*1702 _707_
*1703 _708_
*1704 _709_
*1705 _710_
*1706 _711_
*1707 _712_
*1708 _713_
*1709 _714_
*1710 _715_
*1711 _716_
*1712 _717_
*1713 _718_
*1714 _719_
*1715 _720_
*1716 _721_
*1717 _722_
*1718 _723_
*1719 _724_
*1720 _725_
*1721 _726_
*1722 _727_
*1723 _728_
*1724 _729_
*1725 _730_
*1726 _731_
*1727 _732_
*1728 _733_
*1729 _734_
*1730 _735_
*1731 _736_
*1732 _737_
*1733 _738_
*1734 _739_
*1735 _740_
*1736 _741_
*1737 _742_
*1738 _743_
*1739 _744_
*1740 _745_
*1741 _746_
*1742 _747_
*1743 _748_
*1744 _749_
*1745 _750_
*1746 _751_
*1747 _752_
*1748 _753_
*1749 _754_
*1750 _755_
*1751 _756_
*1752 _757_
*1753 _758_
*1754 _759_
*1755 _760_
*1756 _761_
*1757 _762_
*1758 _763_
*1759 _764_
*1760 _765_
*1761 _766_
*1762 _767_
*1763 _768_
*1764 _769_
*1765 _770_
*1766 _771_
*1767 _772_
*1768 _773_
*1769 _774_
*1770 _775_
*1771 _776_
*1772 _777_
*1773 _778_
*1774 _779_
*1775 _780_
*1776 _781_
*1777 _782_
*1778 _783_
*1779 _784_
*1780 _785_
*1781 _786_
*1782 _787_
*1783 _788_
*1784 _789_
*1785 _790_
*1786 _791_
*1787 _792_
*1788 _793_
*1789 _794_
*1790 _795_
*1791 _796_
*1792 _797_
*1793 _798_
*1794 _799_
*1795 _800_
*1796 _801_
*1797 _802_
*1798 _803_
*1799 _804_
*1800 _805_
*1801 _806_
*1802 _807_
*1803 _808_
*1804 _809_
*1805 _810_
*1806 _811_
*1807 _812_
*1808 _813_
*1809 _814_
*1810 _815_
*1811 _816_
*1812 _817_
*1813 _818_
*1814 _819_
*1815 _820_
*1816 _821_
*1817 _822_
*1818 _823_
*1819 _824_
*1820 _825_
*1821 _826_
*1822 _827_
*1823 _828_
*1824 _829_
*1825 _830_
*1826 _831_
*1827 _832_
*1828 _833_
*1829 _834_
*1830 _835_
*1831 clkbuf_0_clk
*1832 clkbuf_3_0__f_clk
*1833 clkbuf_3_1__f_clk
*1834 clkbuf_3_2__f_clk
*1835 clkbuf_3_3__f_clk
*1836 clkbuf_3_4__f_clk
*1837 clkbuf_3_5__f_clk
*1838 clkbuf_3_6__f_clk
*1839 clkbuf_3_7__f_clk
*1840 clkload0
*1841 clkload1
*1842 clkload2
*1843 clkload3
*1844 clkload4
*1845 clkload5
*1846 clkload6
*1847 fanout34
*1848 fanout35
*1849 fanout36
*1850 fanout37
*1851 fanout38
*1852 fanout39
*1853 fanout40
*1854 fanout41
*1855 fanout42