*SPEF "ieee 1481-1999"
*DESIGN "mult"
*DATE "01:49:14 Tuesday November 25, 2025"
*VENDOR "The OpenROAD Project"
*PROGRAM "OpenROAD"
*VERSION "edf00dff99f6c40d67a30c0e22a8191c5d2ed9d6"
*DESIGN_FLOW "NAME_SCOPE LOCAL" "PIN_CAP NONE"
*DIVIDER /
*DELIMITER :
*BUS_DELIMITER []
*T_UNIT 1 NS
*C_UNIT 1 PF
*R_UNIT 1 OHM
*L_UNIT 1 HENRY

*NAME_MAP
*3 a[0]
*4 a[1]
*5 a[2]
*6 a[3]
*7 a[4]
*8 a[5]
*9 a[6]
*10 a[7]
*11 b[0]
*12 b[1]
*13 b[2]
*14 b[3]
*15 b[4]
*16 b[5]
*17 b[6]
*18 b[7]
*19 clk
*20 product[0]
*21 product[10]
*22 product[11]
*23 product[12]
*24 product[13]
*25 product[14]
*26 product[15]
*27 product[1]
*28 product[2]
*29 product[3]
*30 product[4]
*31 product[5]
*32 product[6]
*33 product[7]
*34 product[8]
*35 product[9]
*36 rst
*37 _000_
*38 _001_
*39 _002_
*40 _003_
*41 _004_
*42 _005_
*43 _006_
*44 _007_
*45 _008_
*46 _009_
*47 _010_
*48 _011_
*49 _012_
*50 _013_
*51 _014_
*52 _015_
*53 _016_
*54 _017_
*55 _018_
*56 _019_
*57 _020_
*58 _021_
*59 _022_
*60 _023_
*61 _024_
*62 _025_
*63 _026_
*64 _027_
*65 _028_
*66 _029_
*67 _030_
*68 _031_
*69 _032_
*70 _033_
*71 _034_
*72 _035_
*73 _036_
*74 _037_
*75 _038_
*76 _039_
*77 _040_
*78 _041_
*79 _042_
*80 _043_
*81 _044_
*82 _045_
*83 _046_
*84 _047_
*85 _048_
*86 _049_
*87 _050_
*88 _051_
*89 _052_
*90 _053_
*91 _054_
*92 _055_
*93 _056_
*94 _057_
*95 _058_
*96 _059_
*97 _060_
*98 _061_
*99 _062_
*100 _063_
*101 _064_
*102 _065_
*103 _066_
*104 _067_
*105 _068_
*106 _069_
*107 _070_
*108 _071_
*109 _072_
*110 _073_
*111 _074_
*112 _075_
*113 _076_
*114 _077_
*115 _078_
*116 _079_
*117 _080_
*118 _081_
*119 _082_
*120 _083_
*121 _084_
*122 _085_
*123 _086_
*124 _087_
*125 _088_
*126 _089_
*127 _090_
*128 _091_
*129 _092_
*130 _093_
*131 _094_
*132 _095_
*133 _096_
*134 _097_
*135 _098_
*136 _099_
*137 _100_
*138 _101_
*139 _102_
*140 _103_
*141 _104_
*142 _105_
*143 _106_
*144 _107_
*145 _108_
*146 _109_
*147 _110_
*148 _111_
*149 _112_
*150 _113_
*151 _114_
*152 _115_
*153 _116_
*154 _117_
*155 _118_
*156 _119_
*157 _120_
*158 _121_
*159 _122_
*160 _123_
*161 _124_
*162 _125_
*163 _126_
*164 _127_
*165 _128_
*166 _129_
*167 _130_
*168 _131_
*169 _132_
*170 _133_
*171 _134_
*172 _135_
*173 _136_
*174 _137_
*175 _138_
*176 _139_
*177 _140_
*178 _141_
*179 _142_
*180 _143_
*181 _144_
*182 _145_
*183 _146_
*184 _147_
*185 _148_
*186 _149_
*187 _150_
*188 _151_
*189 _152_
*190 _153_
*191 _154_
*192 _155_
*193 _156_
*194 _157_
*195 _158_
*196 _159_
*197 _160_
*198 _161_
*199 _162_
*200 _163_
*201 _164_
*202 _165_
*203 _166_
*204 _167_
*205 _168_
*206 _169_
*207 _170_
*208 _171_
*209 _172_
*210 _173_
*211 _174_
*212 _175_
*213 _176_
*214 _177_
*215 _178_
*216 _179_
*217 _180_
*218 _181_
*219 _182_
*220 _183_
*221 _184_
*222 _185_
*223 _186_
*224 _187_
*225 _188_
*226 _189_
*227 _190_
*228 _191_
*229 _192_
*230 _193_
*231 _194_
*232 _195_
*233 _196_
*234 _197_
*235 _198_
*236 _199_
*237 _200_
*238 _201_
*239 _202_
*240 _203_
*241 _204_
*242 _205_
*243 _206_
*244 _207_
*245 _208_
*246 _209_
*247 _210_
*248 _211_
*249 _212_
*250 _213_
*251 _214_
*252 _215_
*253 _216_
*254 _217_
*255 _218_
*256 _219_
*257 _220_
*258 _221_
*259 _222_
*260 _223_
*261 _224_
*262 _225_
*263 _226_
*264 _227_
*265 _228_
*266 _229_
*267 _230_
*268 _231_
*269 _232_
*270 _233_
*271 _234_
*272 _235_
*273 _236_
*274 _237_
*275 _238_
*276 _239_
*277 _240_
*278 _241_
*279 _242_
*280 _243_
*281 _244_
*282 _245_
*283 _246_
*284 _247_
*285 _248_
*286 _249_
*287 _250_
*288 _251_
*289 _252_
*290 _253_
*291 _254_
*292 _255_
*293 _256_
*294 _257_
*295 _258_
*296 _259_
*297 _260_
*298 _261_
*299 _262_
*300 _263_
*301 _264_
*302 _265_
*303 _266_
*304 _267_
*305 _268_
*306 _269_
*307 _270_
*308 _271_
*309 _272_
*310 _273_
*311 _274_
*312 _275_
*313 _276_
*314 _277_
*315 _278_
*316 _279_
*317 _280_
*318 _281_
*319 _282_
*320 _283_
*321 _284_
*322 _285_
*323 _286_
*324 _287_
*325 _288_
*326 _289_
*327 _290_
*328 _291_
*329 _292_
*330 _293_
*331 _294_
*332 _295_
*333 _296_
*334 _297_
*335 _298_
*336 _299_
*337 _300_
*338 _301_
*339 _302_
*340 _303_
*341 _304_
*342 _305_
*343 _306_
*344 _307_
*345 _308_
*346 _309_
*347 _310_
*348 _311_
*349 _312_
*350 _313_
*351 _314_
*352 _315_
*353 _316_
*354 _317_
*355 _318_
*356 _319_
*357 _320_
*358 _321_
*359 _322_
*360 _323_
*361 _324_
*362 _325_
*363 _326_
*364 _327_
*365 _328_
*366 _329_
*367 _330_
*368 _331_
*369 _332_
*370 _333_
*371 _334_
*372 _335_
*373 _336_
*374 _337_
*375 _338_
*376 _339_
*377 _340_
*378 _341_
*379 _342_
*380 _343_
*381 _344_
*382 _345_
*383 _346_
*384 _347_
*385 _348_
*386 _349_
*387 _350_
*388 _351_
*389 _352_
*390 _353_
*391 _354_
*392 _355_
*393 _356_
*394 _357_
*395 _358_
*396 _359_
*397 _360_
*398 _361_
*399 _362_
*400 _363_
*401 _364_
*402 _365_
*403 _366_
*404 _367_
*405 _368_
*406 _369_
*407 _370_
*408 _371_
*409 _372_
*410 _373_
*411 _374_
*412 _375_
*413 _376_
*414 a_high\[0\]
*415 a_high\[1\]
*416 a_high\[2\]
*417 a_high\[3\]
*418 a_low\[0\]
*419 a_low\[1\]
*420 a_low\[2\]
*421 a_low\[3\]
*422 b_high\[0\]
*423 b_high\[1\]
*424 b_high\[2\]
*425 b_high\[3\]
*426 b_low\[0\]
*427 b_low\[1\]
*428 b_low\[2\]
*429 b_low\[3\]
*430 clknet_0_clk
*431 clknet_3_0__leaf_clk
*432 clknet_3_1__leaf_clk
*433 clknet_3_2__leaf_clk
*434 clknet_3_3__leaf_clk
*435 clknet_3_4__leaf_clk
*436 clknet_3_5__leaf_clk
*437 clknet_3_6__leaf_clk
*438 clknet_3_7__leaf_clk
*439 net1
*440 net10
*441 net11
*442 net12
*443 net13
*444 net14
*445 net15
*446 net16
*447 net17
*448 net18
*449 net19
*450 net2
*451 net20
*452 net21
*453 net22
*454 net23
*455 net24
*456 net25
*457 net26
*458 net27
*459 net28
*460 net29
*461 net3
*462 net30
*463 net31
*464 net32
*465 net33
*466 net34
*467 net35
*468 net36
*469 net37
*470 net38
*471 net39
*472 net4
*473 net40
*474 net41
*475 net42
*476 net43
*477 net44
*478 net45
*479 net46
*480 net47
*481 net48
*482 net49
*483 net5
*484 net50
*485 net51
*486 net52
*487 net53
*488 net54
*489 net55
*490 net56
*491 net57
*492 net58
*493 net59
*494 net6
*495 net60
*496 net61
*497 net62
*498 net63
*499 net64
*500 net65
*501 net66
*502 net67
*503 net68
*504 net69
*505 net7
*506 net70
*507 net71
*508 net8
*509 net9
*510 pp0\[0\]
*511 pp0\[1\]
*512 pp0\[2\]
*513 pp0\[3\]
*514 pp0\[4\]
*515 pp0\[5\]
*516 pp0\[6\]
*517 pp0\[7\]
*518 pp1\[0\]
*519 pp1\[1\]
*520 pp1\[2\]
*521 pp1\[3\]
*522 pp1\[4\]
*523 pp1\[5\]
*524 pp1\[6\]
*525 pp1\[7\]
*526 pp2\[0\]
*527 pp2\[1\]
*528 pp2\[2\]
*529 pp2\[3\]
*530 pp2\[4\]
*531 pp2\[5\]
*532 pp2\[6\]
*533 pp2\[7\]
*534 pp3\[0\]
*535 pp3\[1\]
*536 pp3\[2\]
*537 pp3\[3\]
*538 pp3\[4\]
*539 pp3\[5\]
*540 pp3\[6\]
*541 pp3\[7\]
*542 FILLER_0_101
*543 FILLER_0_109
*544 FILLER_0_113
*545 FILLER_0_125
*546 FILLER_0_129
*547 FILLER_0_133
*548 FILLER_0_139
*549 FILLER_0_141
*550 FILLER_0_147
*551 FILLER_0_15
*552 FILLER_0_159
*553 FILLER_0_163
*554 FILLER_0_169
*555 FILLER_0_181
*556 FILLER_0_193
*557 FILLER_0_197
*558 FILLER_0_209
*559 FILLER_0_23
*560 FILLER_0_29
*561 FILLER_0_3
*562 FILLER_0_53
*563 FILLER_0_57
*564 FILLER_0_63
*565 FILLER_0_93
*566 FILLER_10_102
*567 FILLER_10_134
*568 FILLER_10_14
*569 FILLER_10_155
*570 FILLER_10_167
*571 FILLER_10_174
*572 FILLER_10_191
*573 FILLER_10_195
*574 FILLER_10_197
*575 FILLER_10_209
*576 FILLER_10_26
*577 FILLER_10_29
*578 FILLER_10_41
*579 FILLER_10_53
*580 FILLER_10_65
*581 FILLER_10_69
*582 FILLER_10_77
*583 FILLER_10_82
*584 FILLER_10_9
*585 FILLER_10_92
*586 FILLER_10_96
*587 FILLER_11_103
*588 FILLER_11_111
*589 FILLER_11_113
*590 FILLER_11_121
*591 FILLER_11_132
*592 FILLER_11_144
*593 FILLER_11_156
*594 FILLER_11_189
*595 FILLER_11_201
*596 FILLER_11_209
*597 FILLER_11_23
*598 FILLER_11_35
*599 FILLER_11_47
*600 FILLER_11_55
*601 FILLER_11_60
*602 FILLER_11_72
*603 FILLER_11_80
*604 FILLER_11_85
*605 FILLER_11_91
*606 FILLER_12_121
*607 FILLER_12_139
*608 FILLER_12_15
*609 FILLER_12_168
*610 FILLER_12_179
*611 FILLER_12_189
*612 FILLER_12_195
*613 FILLER_12_197
*614 FILLER_12_206
*615 FILLER_12_210
*616 FILLER_12_23
*617 FILLER_12_3
*618 FILLER_12_34
*619 FILLER_12_68
*620 FILLER_12_76
*621 FILLER_13_105
*622 FILLER_13_11
*623 FILLER_13_111
*624 FILLER_13_113
*625 FILLER_13_125
*626 FILLER_13_130
*627 FILLER_13_153
*628 FILLER_13_167
*629 FILLER_13_169
*630 FILLER_13_190
*631 FILLER_13_3
*632 FILLER_13_42
*633 FILLER_13_48
*634 FILLER_13_70
*635 FILLER_13_82
*636 FILLER_13_93
*637 FILLER_14_107
*638 FILLER_14_115
*639 FILLER_14_139
*640 FILLER_14_15
*641 FILLER_14_181
*642 FILLER_14_19
*643 FILLER_14_193
*644 FILLER_14_197
*645 FILLER_14_205
*646 FILLER_14_27
*647 FILLER_14_3
*648 FILLER_14_40
*649 FILLER_14_52
*650 FILLER_14_56
*651 FILLER_14_67
*652 FILLER_14_79
*653 FILLER_14_85
*654 FILLER_14_91
*655 FILLER_14_95
*656 FILLER_15_106
*657 FILLER_15_113
*658 FILLER_15_137
*659 FILLER_15_149
*660 FILLER_15_15
*661 FILLER_15_154
*662 FILLER_15_163
*663 FILLER_15_167
*664 FILLER_15_169
*665 FILLER_15_181
*666 FILLER_15_193
*667 FILLER_15_205
*668 FILLER_15_21
*669 FILLER_15_26
*670 FILLER_15_3
*671 FILLER_15_35
*672 FILLER_15_47
*673 FILLER_15_55
*674 FILLER_15_57
*675 FILLER_15_72
*676 FILLER_15_80
*677 FILLER_15_86
*678 FILLER_15_94
*679 FILLER_16_109
*680 FILLER_16_133
*681 FILLER_16_139
*682 FILLER_16_161
*683 FILLER_16_173
*684 FILLER_16_185
*685 FILLER_16_193
*686 FILLER_16_197
*687 FILLER_16_205
*688 FILLER_16_3
*689 FILLER_16_32
*690 FILLER_16_41
*691 FILLER_16_53
*692 FILLER_16_67
*693 FILLER_16_76
*694 FILLER_16_85
*695 FILLER_17_110
*696 FILLER_17_119
*697 FILLER_17_131
*698 FILLER_17_135
*699 FILLER_17_139
*700 FILLER_17_15
*701 FILLER_17_151
*702 FILLER_17_163
*703 FILLER_17_167
*704 FILLER_17_172
*705 FILLER_17_184
*706 FILLER_17_190
*707 FILLER_17_29
*708 FILLER_17_3
*709 FILLER_17_45
*710 FILLER_17_62
*711 FILLER_17_74
*712 FILLER_17_86
*713 FILLER_17_94
*714 FILLER_18_118
*715 FILLER_18_147
*716 FILLER_18_15
*717 FILLER_18_153
*718 FILLER_18_176
*719 FILLER_18_188
*720 FILLER_18_197
*721 FILLER_18_210
*722 FILLER_18_27
*723 FILLER_18_29
*724 FILLER_18_3
*725 FILLER_18_40
*726 FILLER_18_48
*727 FILLER_18_63
*728 FILLER_18_75
*729 FILLER_18_83
*730 FILLER_18_92
*731 FILLER_19_109
*732 FILLER_19_120
*733 FILLER_19_144
*734 FILLER_19_15
*735 FILLER_19_160
*736 FILLER_19_169
*737 FILLER_19_189
*738 FILLER_19_201
*739 FILLER_19_209
*740 FILLER_19_27
*741 FILLER_19_3
*742 FILLER_19_39
*743 FILLER_19_51
*744 FILLER_19_55
*745 FILLER_19_57
*746 FILLER_19_69
*747 FILLER_19_73
*748 FILLER_19_86
*749 FILLER_19_97
*750 FILLER_1_116
*751 FILLER_1_15
*752 FILLER_1_162
*753 FILLER_1_169
*754 FILLER_1_181
*755 FILLER_1_193
*756 FILLER_1_205
*757 FILLER_1_3
*758 FILLER_1_50
*759 FILLER_1_55
*760 FILLER_1_57
*761 FILLER_1_70
*762 FILLER_20_108
*763 FILLER_20_120
*764 FILLER_20_132
*765 FILLER_20_15
*766 FILLER_20_155
*767 FILLER_20_186
*768 FILLER_20_194
*769 FILLER_20_197
*770 FILLER_20_206
*771 FILLER_20_27
*772 FILLER_20_29
*773 FILLER_20_3
*774 FILLER_20_46
*775 FILLER_20_52
*776 FILLER_20_63
*777 FILLER_20_69
*778 FILLER_20_93
*779 FILLER_21_106
*780 FILLER_21_113
*781 FILLER_21_117
*782 FILLER_21_138
*783 FILLER_21_15
*784 FILLER_21_167
*785 FILLER_21_169
*786 FILLER_21_173
*787 FILLER_21_190
*788 FILLER_21_27
*789 FILLER_21_3
*790 FILLER_21_52
*791 FILLER_21_72
*792 FILLER_21_88
*793 FILLER_21_96
*794 FILLER_22_101
*795 FILLER_22_109
*796 FILLER_22_11
*797 FILLER_22_133
*798 FILLER_22_139
*799 FILLER_22_16
*800 FILLER_22_165
*801 FILLER_22_174
*802 FILLER_22_182
*803 FILLER_22_194
*804 FILLER_22_197
*805 FILLER_22_209
*806 FILLER_22_29
*807 FILLER_22_3
*808 FILLER_22_33
*809 FILLER_22_52
*810 FILLER_22_58
*811 FILLER_22_68
*812 FILLER_22_80
*813 FILLER_23_104
*814 FILLER_23_116
*815 FILLER_23_128
*816 FILLER_23_142
*817 FILLER_23_149
*818 FILLER_23_172
*819 FILLER_23_184
*820 FILLER_23_196
*821 FILLER_23_208
*822 FILLER_23_23
*823 FILLER_23_35
*824 FILLER_23_48
*825 FILLER_23_77
*826 FILLER_23_92
*827 FILLER_24_129
*828 FILLER_24_138
*829 FILLER_24_151
*830 FILLER_24_172
*831 FILLER_24_184
*832 FILLER_24_197
*833 FILLER_24_206
*834 FILLER_24_210
*835 FILLER_24_29
*836 FILLER_24_41
*837 FILLER_24_47
*838 FILLER_24_59
*839 FILLER_24_6
*840 FILLER_24_68
*841 FILLER_24_82
*842 FILLER_24_85
*843 FILLER_25_106
*844 FILLER_25_113
*845 FILLER_25_140
*846 FILLER_25_150
*847 FILLER_25_16
*848 FILLER_25_161
*849 FILLER_25_167
*850 FILLER_25_169
*851 FILLER_25_184
*852 FILLER_25_190
*853 FILLER_25_22
*854 FILLER_25_34
*855 FILLER_25_46
*856 FILLER_25_54
*857 FILLER_25_57
*858 FILLER_25_80
*859 FILLER_25_9
*860 FILLER_25_94
*861 FILLER_26_103
*862 FILLER_26_115
*863 FILLER_26_119
*864 FILLER_26_123
*865 FILLER_26_188
*866 FILLER_26_197
*867 FILLER_26_203
*868 FILLER_26_23
*869 FILLER_26_27
*870 FILLER_26_29
*871 FILLER_26_41
*872 FILLER_26_53
*873 FILLER_26_71
*874 FILLER_26_83
*875 FILLER_26_85
*876 FILLER_26_94
*877 FILLER_27_105
*878 FILLER_27_111
*879 FILLER_27_120
*880 FILLER_27_128
*881 FILLER_27_135
*882 FILLER_27_143
*883 FILLER_27_152
*884 FILLER_27_164
*885 FILLER_27_182
*886 FILLER_27_188
*887 FILLER_27_209
*888 FILLER_27_26
*889 FILLER_27_38
*890 FILLER_27_55
*891 FILLER_27_76
*892 FILLER_27_90
*893 FILLER_27_98
*894 FILLER_28_115
*895 FILLER_28_139
*896 FILLER_28_141
*897 FILLER_28_153
*898 FILLER_28_170
*899 FILLER_28_182
*900 FILLER_28_194
*901 FILLER_28_197
*902 FILLER_28_205
*903 FILLER_28_32
*904 FILLER_28_6
*905 FILLER_29_110
*906 FILLER_29_119
*907 FILLER_29_131
*908 FILLER_29_15
*909 FILLER_29_157
*910 FILLER_29_176
*911 FILLER_29_188
*912 FILLER_29_27
*913 FILLER_29_39
*914 FILLER_29_44
*915 FILLER_29_52
*916 FILLER_29_6
*917 FILLER_29_78
*918 FILLER_29_84
*919 FILLER_29_92
*920 FILLER_2_106
*921 FILLER_2_114
*922 FILLER_2_149
*923 FILLER_2_15
*924 FILLER_2_157
*925 FILLER_2_169
*926 FILLER_2_181
*927 FILLER_2_193
*928 FILLER_2_197
*929 FILLER_2_27
*930 FILLER_2_29
*931 FILLER_2_3
*932 FILLER_2_81
*933 FILLER_2_85
*934 FILLER_30_100
*935 FILLER_30_106
*936 FILLER_30_118
*937 FILLER_30_130
*938 FILLER_30_138
*939 FILLER_30_141
*940 FILLER_30_151
*941 FILLER_30_163
*942 FILLER_30_170
*943 FILLER_30_182
*944 FILLER_30_194
*945 FILLER_30_197
*946 FILLER_30_206
*947 FILLER_30_210
*948 FILLER_30_23
*949 FILLER_30_27
*950 FILLER_30_29
*951 FILLER_30_54
*952 FILLER_30_60
*953 FILLER_30_71
*954 FILLER_30_79
*955 FILLER_30_83
*956 FILLER_30_88
*957 FILLER_31_105
*958 FILLER_31_111
*959 FILLER_31_113
*960 FILLER_31_117
*961 FILLER_31_14
*962 FILLER_31_141
*963 FILLER_31_145
*964 FILLER_31_149
*965 FILLER_31_161
*966 FILLER_31_167
*967 FILLER_31_169
*968 FILLER_31_181
*969 FILLER_31_193
*970 FILLER_31_205
*971 FILLER_31_40
*972 FILLER_31_51
*973 FILLER_31_55
*974 FILLER_31_57
*975 FILLER_31_6
*976 FILLER_31_69
*977 FILLER_31_75
*978 FILLER_31_87
*979 FILLER_31_93
*980 FILLER_32_108
*981 FILLER_32_120
*982 FILLER_32_128
*983 FILLER_32_134
*984 FILLER_32_147
*985 FILLER_32_167
*986 FILLER_32_18
*987 FILLER_32_189
*988 FILLER_32_195
*989 FILLER_32_197
*990 FILLER_32_209
*991 FILLER_32_26
*992 FILLER_32_29
*993 FILLER_32_41
*994 FILLER_32_6
*995 FILLER_32_66
*996 FILLER_32_78
*997 FILLER_32_85
*998 FILLER_32_97
*999 FILLER_33_104
*1000 FILLER_33_15
*1001 FILLER_33_192
*1002 FILLER_33_204
*1003 FILLER_33_210
*1004 FILLER_33_27
*1005 FILLER_33_3
*1006 FILLER_33_35
*1007 FILLER_33_40
*1008 FILLER_33_52
*1009 FILLER_33_75
*1010 FILLER_34_15
*1011 FILLER_34_169
*1012 FILLER_34_175
*1013 FILLER_34_179
*1014 FILLER_34_191
*1015 FILLER_34_195
*1016 FILLER_34_197
*1017 FILLER_34_209
*1018 FILLER_34_27
*1019 FILLER_34_3
*1020 FILLER_34_49
*1021 FILLER_34_57
*1022 FILLER_34_71
*1023 FILLER_34_85
*1024 FILLER_35_109
*1025 FILLER_35_113
*1026 FILLER_35_125
*1027 FILLER_35_137
*1028 FILLER_35_141
*1029 FILLER_35_15
*1030 FILLER_35_153
*1031 FILLER_35_165
*1032 FILLER_35_169
*1033 FILLER_35_175
*1034 FILLER_35_183
*1035 FILLER_35_189
*1036 FILLER_35_197
*1037 FILLER_35_209
*1038 FILLER_35_27
*1039 FILLER_35_29
*1040 FILLER_35_3
*1041 FILLER_35_34
*1042 FILLER_35_46
*1043 FILLER_35_54
*1044 FILLER_35_57
*1045 FILLER_35_69
*1046 FILLER_35_81
*1047 FILLER_35_85
*1048 FILLER_35_97
*1049 FILLER_3_11
*1050 FILLER_3_111
*1051 FILLER_3_116
*1052 FILLER_3_128
*1053 FILLER_3_140
*1054 FILLER_3_15
*1055 FILLER_3_152
*1056 FILLER_3_164
*1057 FILLER_3_169
*1058 FILLER_3_181
*1059 FILLER_3_193
*1060 FILLER_3_205
*1061 FILLER_3_27
*1062 FILLER_3_3
*1063 FILLER_3_35
*1064 FILLER_3_41
*1065 FILLER_3_45
*1066 FILLER_3_55
*1067 FILLER_3_65
*1068 FILLER_3_75
*1069 FILLER_3_87
*1070 FILLER_3_99
*1071 FILLER_4_103
*1072 FILLER_4_115
*1073 FILLER_4_127
*1074 FILLER_4_138
*1075 FILLER_4_141
*1076 FILLER_4_153
*1077 FILLER_4_165
*1078 FILLER_4_177
*1079 FILLER_4_181
*1080 FILLER_4_185
*1081 FILLER_4_193
*1082 FILLER_4_197
*1083 FILLER_4_205
*1084 FILLER_4_23
*1085 FILLER_4_27
*1086 FILLER_4_29
*1087 FILLER_4_41
*1088 FILLER_4_53
*1089 FILLER_4_66
*1090 FILLER_4_70
*1091 FILLER_4_74
*1092 FILLER_4_78
*1093 FILLER_4_85
*1094 FILLER_4_89
*1095 FILLER_4_95
*1096 FILLER_5_104
*1097 FILLER_5_111
*1098 FILLER_5_120
*1099 FILLER_5_128
*1100 FILLER_5_151
*1101 FILLER_5_156
*1102 FILLER_5_169
*1103 FILLER_5_35
*1104 FILLER_5_39
*1105 FILLER_5_44
*1106 FILLER_5_57
*1107 FILLER_5_6
*1108 FILLER_5_80
*1109 FILLER_5_90
*1110 FILLER_5_97
*1111 FILLER_6_116
*1112 FILLER_6_15
*1113 FILLER_6_158
*1114 FILLER_6_172
*1115 FILLER_6_184
*1116 FILLER_6_197
*1117 FILLER_6_27
*1118 FILLER_6_29
*1119 FILLER_6_53
*1120 FILLER_6_72
*1121 FILLER_6_81
*1122 FILLER_6_9
*1123 FILLER_7_107
*1124 FILLER_7_111
*1125 FILLER_7_113
*1126 FILLER_7_125
*1127 FILLER_7_129
*1128 FILLER_7_150
*1129 FILLER_7_154
*1130 FILLER_7_165
*1131 FILLER_7_173
*1132 FILLER_7_185
*1133 FILLER_7_23
*1134 FILLER_7_29
*1135 FILLER_7_54
*1136 FILLER_8_100
*1137 FILLER_8_112
*1138 FILLER_8_133
*1139 FILLER_8_139
*1140 FILLER_8_141
*1141 FILLER_8_153
*1142 FILLER_8_175
*1143 FILLER_8_187
*1144 FILLER_8_195
*1145 FILLER_8_197
*1146 FILLER_8_201
*1147 FILLER_8_209
*1148 FILLER_8_32
*1149 FILLER_8_55
*1150 FILLER_8_6
*1151 FILLER_9_104
*1152 FILLER_9_136
*1153 FILLER_9_155
*1154 FILLER_9_167
*1155 FILLER_9_172
*1156 FILLER_9_180
*1157 FILLER_9_194
*1158 FILLER_9_206
*1159 FILLER_9_26
*1160 FILLER_9_38
*1161 FILLER_9_42
*1162 FILLER_9_47
*1163 FILLER_9_55
*1164 PHY_EDGE_ROW_0_Left_36
*1165 PHY_EDGE_ROW_0_Right_0
*1166 PHY_EDGE_ROW_10_Left_46
*1167 PHY_EDGE_ROW_10_Right_10
*1168 PHY_EDGE_ROW_11_Left_47
*1169 PHY_EDGE_ROW_11_Right_11
*1170 PHY_EDGE_ROW_12_Left_48
*1171 PHY_EDGE_ROW_12_Right_12
*1172 PHY_EDGE_ROW_13_Left_49
*1173 PHY_EDGE_ROW_13_Right_13
*1174 PHY_EDGE_ROW_14_Left_50
*1175 PHY_EDGE_ROW_14_Right_14
*1176 PHY_EDGE_ROW_15_Left_51
*1177 PHY_EDGE_ROW_15_Right_15
*1178 PHY_EDGE_ROW_16_Left_52
*1179 PHY_EDGE_ROW_16_Right_16
*1180 PHY_EDGE_ROW_17_Left_53
*1181 PHY_EDGE_ROW_17_Right_17
*1182 PHY_EDGE_ROW_18_Left_54
*1183 PHY_EDGE_ROW_18_Right_18
*1184 PHY_EDGE_ROW_19_Left_55
*1185 PHY_EDGE_ROW_19_Right_19
*1186 PHY_EDGE_ROW_1_Left_37
*1187 PHY_EDGE_ROW_1_Right_1
*1188 PHY_EDGE_ROW_20_Left_56
*1189 PHY_EDGE_ROW_20_Right_20
*1190 PHY_EDGE_ROW_21_Left_57
*1191 PHY_EDGE_ROW_21_Right_21
*1192 PHY_EDGE_ROW_22_Left_58
*1193 PHY_EDGE_ROW_22_Right_22
*1194 PHY_EDGE_ROW_23_Left_59
*1195 PHY_EDGE_ROW_23_Right_23
*1196 PHY_EDGE_ROW_24_Left_60
*1197 PHY_EDGE_ROW_24_Right_24
*1198 PHY_EDGE_ROW_25_Left_61
*1199 PHY_EDGE_ROW_25_Right_25
*1200 PHY_EDGE_ROW_26_Left_62
*1201 PHY_EDGE_ROW_26_Right_26
*1202 PHY_EDGE_ROW_27_Left_63
*1203 PHY_EDGE_ROW_27_Right_27
*1204 PHY_EDGE_ROW_28_Left_64
*1205 PHY_EDGE_ROW_28_Right_28
*1206 PHY_EDGE_ROW_29_Left_65
*1207 PHY_EDGE_ROW_29_Right_29
*1208 PHY_EDGE_ROW_2_Left_38
*1209 PHY_EDGE_ROW_2_Right_2
*1210 PHY_EDGE_ROW_30_Left_66
*1211 PHY_EDGE_ROW_30_Right_30
*1212 PHY_EDGE_ROW_31_Left_67
*1213 PHY_EDGE_ROW_31_Right_31
*1214 PHY_EDGE_ROW_32_Left_68
*1215 PHY_EDGE_ROW_32_Right_32
*1216 PHY_EDGE_ROW_33_Left_69
*1217 PHY_EDGE_ROW_33_Right_33
*1218 PHY_EDGE_ROW_34_Left_70
*1219 PHY_EDGE_ROW_34_Right_34
*1220 PHY_EDGE_ROW_35_Left_71
*1221 PHY_EDGE_ROW_35_Right_35
*1222 PHY_EDGE_ROW_3_Left_39
*1223 PHY_EDGE_ROW_3_Right_3
*1224 PHY_EDGE_ROW_4_Left_40
*1225 PHY_EDGE_ROW_4_Right_4
*1226 PHY_EDGE_ROW_5_Left_41
*1227 PHY_EDGE_ROW_5_Right_5
*1228 PHY_EDGE_ROW_6_Left_42
*1229 PHY_EDGE_ROW_6_Right_6
*1230 PHY_EDGE_ROW_7_Left_43
*1231 PHY_EDGE_ROW_7_Right_7
*1232 PHY_EDGE_ROW_8_Left_44
*1233 PHY_EDGE_ROW_8_Right_8
*1234 PHY_EDGE_ROW_9_Left_45
*1235 PHY_EDGE_ROW_9_Right_9
*1236 TAP_TAPCELL_ROW_0_72
*1237 TAP_TAPCELL_ROW_0_73
*1238 TAP_TAPCELL_ROW_0_74
*1239 TAP_TAPCELL_ROW_0_75
*1240 TAP_TAPCELL_ROW_0_76
*1241 TAP_TAPCELL_ROW_0_77
*1242 TAP_TAPCELL_ROW_0_78
*1243 TAP_TAPCELL_ROW_10_110
*1244 TAP_TAPCELL_ROW_10_111
*1245 TAP_TAPCELL_ROW_10_112
*1246 TAP_TAPCELL_ROW_10_113
*1247 TAP_TAPCELL_ROW_11_114
*1248 TAP_TAPCELL_ROW_11_115
*1249 TAP_TAPCELL_ROW_11_116
*1250 TAP_TAPCELL_ROW_12_117
*1251 TAP_TAPCELL_ROW_12_118
*1252 TAP_TAPCELL_ROW_12_119
*1253 TAP_TAPCELL_ROW_12_120
*1254 TAP_TAPCELL_ROW_13_121
*1255 TAP_TAPCELL_ROW_13_122
*1256 TAP_TAPCELL_ROW_13_123
*1257 TAP_TAPCELL_ROW_14_124
*1258 TAP_TAPCELL_ROW_14_125
*1259 TAP_TAPCELL_ROW_14_126
*1260 TAP_TAPCELL_ROW_14_127
*1261 TAP_TAPCELL_ROW_15_128
*1262 TAP_TAPCELL_ROW_15_129
*1263 TAP_TAPCELL_ROW_15_130
*1264 TAP_TAPCELL_ROW_16_131
*1265 TAP_TAPCELL_ROW_16_132
*1266 TAP_TAPCELL_ROW_16_133
*1267 TAP_TAPCELL_ROW_16_134
*1268 TAP_TAPCELL_ROW_17_135
*1269 TAP_TAPCELL_ROW_17_136
*1270 TAP_TAPCELL_ROW_17_137
*1271 TAP_TAPCELL_ROW_18_138
*1272 TAP_TAPCELL_ROW_18_139
*1273 TAP_TAPCELL_ROW_18_140
*1274 TAP_TAPCELL_ROW_18_141
*1275 TAP_TAPCELL_ROW_19_142
*1276 TAP_TAPCELL_ROW_19_143
*1277 TAP_TAPCELL_ROW_19_144
*1278 TAP_TAPCELL_ROW_1_79
*1279 TAP_TAPCELL_ROW_1_80
*1280 TAP_TAPCELL_ROW_1_81
*1281 TAP_TAPCELL_ROW_20_145
*1282 TAP_TAPCELL_ROW_20_146
*1283 TAP_TAPCELL_ROW_20_147
*1284 TAP_TAPCELL_ROW_20_148
*1285 TAP_TAPCELL_ROW_21_149
*1286 TAP_TAPCELL_ROW_21_150
*1287 TAP_TAPCELL_ROW_21_151
*1288 TAP_TAPCELL_ROW_22_152
*1289 TAP_TAPCELL_ROW_22_153
*1290 TAP_TAPCELL_ROW_22_154
*1291 TAP_TAPCELL_ROW_22_155
*1292 TAP_TAPCELL_ROW_23_156
*1293 TAP_TAPCELL_ROW_23_157
*1294 TAP_TAPCELL_ROW_23_158
*1295 TAP_TAPCELL_ROW_24_159
*1296 TAP_TAPCELL_ROW_24_160
*1297 TAP_TAPCELL_ROW_24_161
*1298 TAP_TAPCELL_ROW_24_162
*1299 TAP_TAPCELL_ROW_25_163
*1300 TAP_TAPCELL_ROW_25_164
*1301 TAP_TAPCELL_ROW_25_165
*1302 TAP_TAPCELL_ROW_26_166
*1303 TAP_TAPCELL_ROW_26_167
*1304 TAP_TAPCELL_ROW_26_168
*1305 TAP_TAPCELL_ROW_26_169
*1306 TAP_TAPCELL_ROW_27_170
*1307 TAP_TAPCELL_ROW_27_171
*1308 TAP_TAPCELL_ROW_27_172
*1309 TAP_TAPCELL_ROW_28_173
*1310 TAP_TAPCELL_ROW_28_174
*1311 TAP_TAPCELL_ROW_28_175
*1312 TAP_TAPCELL_ROW_28_176
*1313 TAP_TAPCELL_ROW_29_177
*1314 TAP_TAPCELL_ROW_29_178
*1315 TAP_TAPCELL_ROW_29_179
*1316 TAP_TAPCELL_ROW_2_82
*1317 TAP_TAPCELL_ROW_2_83
*1318 TAP_TAPCELL_ROW_2_84
*1319 TAP_TAPCELL_ROW_2_85
*1320 TAP_TAPCELL_ROW_30_180
*1321 TAP_TAPCELL_ROW_30_181
*1322 TAP_TAPCELL_ROW_30_182
*1323 TAP_TAPCELL_ROW_30_183
*1324 TAP_TAPCELL_ROW_31_184
*1325 TAP_TAPCELL_ROW_31_185
*1326 TAP_TAPCELL_ROW_31_186
*1327 TAP_TAPCELL_ROW_32_187
*1328 TAP_TAPCELL_ROW_32_188
*1329 TAP_TAPCELL_ROW_32_189
*1330 TAP_TAPCELL_ROW_32_190
*1331 TAP_TAPCELL_ROW_33_191
*1332 TAP_TAPCELL_ROW_33_192
*1333 TAP_TAPCELL_ROW_33_193
*1334 TAP_TAPCELL_ROW_34_194
*1335 TAP_TAPCELL_ROW_34_195
*1336 TAP_TAPCELL_ROW_34_196
*1337 TAP_TAPCELL_ROW_34_197
*1338 TAP_TAPCELL_ROW_35_198
*1339 TAP_TAPCELL_ROW_35_199
*1340 TAP_TAPCELL_ROW_35_200
*1341 TAP_TAPCELL_ROW_35_201
*1342 TAP_TAPCELL_ROW_35_202
*1343 TAP_TAPCELL_ROW_35_203
*1344 TAP_TAPCELL_ROW_35_204
*1345 TAP_TAPCELL_ROW_3_86
*1346 TAP_TAPCELL_ROW_3_87
*1347 TAP_TAPCELL_ROW_3_88
*1348 TAP_TAPCELL_ROW_4_89
*1349 TAP_TAPCELL_ROW_4_90
*1350 TAP_TAPCELL_ROW_4_91
*1351 TAP_TAPCELL_ROW_4_92
*1352 TAP_TAPCELL_ROW_5_93
*1353 TAP_TAPCELL_ROW_5_94
*1354 TAP_TAPCELL_ROW_5_95
*1355 TAP_TAPCELL_ROW_6_96
*1356 TAP_TAPCELL_ROW_6_97
*1357 TAP_TAPCELL_ROW_6_98
*1358 TAP_TAPCELL_ROW_6_99
*1359 TAP_TAPCELL_ROW_7_100
*1360 TAP_TAPCELL_ROW_7_101
*1361 TAP_TAPCELL_ROW_7_102
*1362 TAP_TAPCELL_ROW_8_103
*1363 TAP_TAPCELL_ROW_8_104
*1364 TAP_TAPCELL_ROW_8_105
*1365 TAP_TAPCELL_ROW_8_106
*1366 TAP_TAPCELL_ROW_9_107
*1367 TAP_TAPCELL_ROW_9_108
*1368 TAP_TAPCELL_ROW_9_109
*1369 _377_
*1370 _378_
*1371 _379_
*1372 _380_
*1373 _381_
*1374 _382_
*1375 _383_
*1376 _384_
*1377 _385_
*1378 _386_
*1379 _387_
*1380 _388_
*1381 _389_
*1382 _390_
*1383 _391_
*1384 _392_
*1385 _393_
*1386 _394_
*1387 _395_
*1388 _396_
*1389 _397_
*1390 _398_
*1391 _399_
*1392 _400_
*1393 _401_
*1394 _402_
*1395 _403_
*1396 _404_
*1397 _405_
*1398 _406_
*1399 _407_
*1400 _408_
*1401 _409_
*1402 _410_
*1403 _411_
*1404 _412_
*1405 _413_
*1406 _414_
*1407 _415_
*1408 _416_
*1409 _417_
*1410 _418_
*1411 _419_
*1412 _420_
*1413 _421_
*1414 _422_
*1415 _423_
*1416 _424_
*1417 _425_
*1418 _426_
*1419 _427_
*1420 _428_
*1421 _429_
*1422 _430_
*1423 _431_
*1424 _432_
*1425 _433_
*1426 _434_
*1427 _435_
*1428 _436_
*1429 _437_
*1430 _438_
*1431 _439_
*1432 _440_
*1433 _441_
*1434 _442_
*1435 _443_
*1436 _444_
*1437 _445_
*1438 _446_
*1439 _447_
*1440 _448_
*1441 _449_
*1442 _450_
*1443 _451_
*1444 _452_
*1445 _453_
*1446 _454_
*1447 _455_
*1448 _456_
*1449 _457_
*1450 _458_
*1451 _459_
*1452 _460_
*1453 _461_
*1454 _462_
*1455 _463_
*1456 _464_
*1457 _465_
*1458 _466_
*1459 _467_
*1460 _468_
*1461 _469_
*1462 _470_
*1463 _471_
*1464 _472_
*1465 _473_
*1466 _474_
*1467 _475_
*1468 _476_
*1469 _477_
*1470 _478_
*1471 _479_
*1472 _480_
*1473 _481_
*1474 _482_
*1475 _483_
*1476 _484_
*1477 _485_
*1478 _486_
*1479 _487_
*1480 _488_
*1481 _489_
*1482 _490_
*1483 _491_
*1484 _492_
*1485 _493_
*1486 _494_
*1487 _495_
*1488 _496_
*1489 _497_
*1490 _498_
*1491 _499_
*1492 _500_
*1493 _501_
*1494 _502_
*1495 _503_
*1496 _504_
*1497 _505_
*1498 _506_
*1499 _507_
*1500 _508_
*1501 _509_
*1502 _510_
*1503 _511_
*1504 _512_
*1505 _513_
*1506 _514_
*1507 _515_
*1508 _516_
*1509 _517_
*1510 _518_
*1511 _519_
*1512 _520_
*1513 _521_
*1514 _522_
*1515 _523_
*1516 _524_
*1517 _525_
*1518 _526_
*1519 _527_
*1520 _528_
*1521 _529_
*1522 _530_
*1523 _531_
*1524 _532_
*1525 _533_
*1526 _534_
*1527 _535_
*1528 _536_
*1529 _537_
*1530 _538_
*1531 _539_
*1532 _540_
*1533 _541_
*1534 _542_
*1535 _543_
*1536 _544_
*1537 _545_
*1538 _546_
*1539 _547_
*1540 _548_
*1541 _549_
*1542 _550_
*1543 _551_
*1544 _552_
*1545 _553_
*1546 _554_
*1547 _555_
*1548 _556_
*1549 _557_
*1550 _558_
*1551 _559_
*1552 _560_
*1553 _561_
*1554 _562_
*1555 _563_
*1556 _564_
*1557 _565_
*1558 _566_
*1559 _567_
*1560 _568_
*1561 _569_
*1562 _570_
*1563 _571_
*1564 _572_
*1565 _573_
*1566 _574_
*1567 _575_
*1568 _576_
*1569 _577_
*1570 _578_
*1571 _579_
*1572 _580_
*1573 _581_
*1574 _582_
*1575 _583_
*1576 _584_
*1577 _585_
*1578 _586_
*1579 _587_
*1580 _588_
*1581 _589_
*1582 _590_
*1583 _591_
*1584 _592_
*1585 _593_
*1586 _594_
*1587 _595_
*1588 _596_
*1589 _597_
*1590 _598_
*1591 _599_
*1592 _600_
*1593 _601_
*1594 _602_
*1595 _603_
*1596 _604_
*1597 _605_
*1598 _606_
*1599 _607_
*1600 _608_
*1601 _609_
*1602 _610_
*1603 _611_
*1604 _612_
*1605 _613_
*1606 _614_
*1607 _615_
*1608 _616_
*1609 _617_
*1610 _618_
*1611 _619_
*1612 _620_
*1613 _621_
*1614 _622_
*1615 _623_
*1616 _624_
*1617 _625_
*1618 _626_
*1619 _627_
*1620 _628_
*1621 _629_
*1622 _630_
*1623 _631_
*1624 _632_
*1625 _633_
*1626 _634_
*1627 _635_
*1628 _636_
*1629 _637_
*1630 _638_
*1631 _639_
*1632 _640_
*1633 _641_
*1634 _642_
*1635 _643_
*1636 _644_
*1637 _645_
*1638 _646_
*1639 _647_
*1640 _648_
*1641 _649_
*1642 _650_
*1643 _651_
*1644 _652_
*1645 _653_
*1646 _654_
*1647 _655_
*1648 _656_
*1649 _657_
*1650 _658_
*1651 _659_
*1652 _660_
*1653 _661_
*1654 _662_
*1655 _663_
*1656 _664_
*1657 _665_
*1658 _666_
*1659 _667_
*1660 _668_
*1661 _669_
*1662 _670_
*1663 _671_
*1664 _672_
*1665 _673_
*1666 _674_
*1667 _675_
*1668 _676_
*1669 _677_
*1670 _678_
*1671 _679_
*1672 _680_
*1673 _681_
*1674 _682_
*1675 _683_
*1676 _684_
*1677 _685_
*1678 _686_
*1679 _687_
*1680 _688_
*1681 _689_
*1682 _690_
*1683 _691_
*1684 _692_
*1685 _693_
*1686 _694_
*1687 _695_
*1688 _696_
*1689 _697_
*1690 _698_
*1691 _699_
*1692 _700_
*1693 _701_
*1694 _702_
*1695 _703_
*1696 _704_
*1697 _705_
*1698 _706_
*1699 _707_
*1700 _708_
*1701 _709_
*1702 _710_
*1703 _711_
*1704 _712_
*1705 _713_
*1706 _714_
*1707 _715_
*1708 _716_
*1709 _717_
*1710 _718_
*1711 _719_
*1712 _720_
*1713 _721_
*1714 _722_
*1715 _723_
*1716 _724_
*1717 _725_
*1718 _726_
*1719 _727_
*1720 _728_
*1721 _729_
*1722 _730_
*1723 _731_
*1724 _732_
*1725 _733_
*1726 _734_
*1727 _735_
*1728 _736_
*1729 _737_
*1730 _738_
*1731 _739_
*1732 _740_
*1733 _741_
*1734 _742_
*1735 _743_
*1736 _744_
*1737 _745_
*1738 _746_
*1739 _747_
*1740 _748_
*1741 _749_
*1742 _750_
*1743 _751_
*1744 _752_
*1745 _753_
*1746 _754_
*1747 _755_
*1748 _756_
*1749 _757_
*1750 _758_
*1751 _759_
*1752 _760_
*1753 _761_
*1754 _762_
*1755 _763_
*1756 _764_
*1757 _765_
*1758 _766_
*1759 _767_
*1760 _768_
*1761 _769_
*1762 _770_
*1763 _771_
*1764 _772_
*1765 _773_
*1766 _774_
*1767 _775_
*1768 _776_
*1769 _777_
*1770 _778_
*1771 _779_
*1772 _780_
*1773 _781_
*1774 _782_
*1775 _783_
*1776 _784_
*1777 _785_
*1778 _786_
*1779 _787_
*1780 _788_
*1781 _789_
*1782 _790_
*1783 _791_
*1784 _792_
*1785 _793_
*1786 _794_
*1787 _795_
*1788 _796_
*1789 _797_
*1790 _798_
*1791 _799_
*1792 _800_
*1793 _801_
*1794 _802_
*1795 _803_
*1796 _804_
*1797 _805_
*1798 _806_
*1799 _807_
*1800 _808_
*1801 _809_
*1802 _810_
*1803 _811_
*1804 _812_
*1805 _813_
*1806 _814_
*1807 _815_
*1808 _816_
*1809 _817_
*1810 clkbuf_0_clk
*1811 clkbuf_3_0__f_clk
*1812 clkbuf_3_1__f_clk
*1813 clkbuf_3_2__f_clk
*1814 clkbuf_3_3__f_clk
*1815 clkbuf_3_4__f_clk
*1816 clkbuf_3_5__f_clk
*1817 clkbuf_3_6__f_clk
*1818 clkbuf_3_7__f_clk
*1819 clkload0
*1820 clkload1
*1821 clkload2
*1822 clkload3
*1823 clkload4
*1824 clkload5
*1825 clkload6
*1826 fanout34
*1827 fanout35
*1828 fanout36
*1829 fanout37
*1830 fanout38
*1831 fanout39
*1832 fanout40
*1833 fanout41
*1834 fanout42
*1835 fanout43
*1836 fanout44
*1837 fanout45
*1838 fanout46
*1839 fanout47
*1840 fanout48
*1841 fanout49
*1842 fanout50
*1843 fanout51
*1844 fanout52
*1845 fanout53
*1846 fanout54
*1847 fanout55
*1848 fanout56
*1849 fanout57
*1850 fanout58
*1851 fanout59