*SPEF "ieee 1481-1999"
*DESIGN "mult"
*DATE "16:58:47 Wednesday November 26, 2025"
*VENDOR "The OpenROAD Project"
*PROGRAM "OpenROAD"
*VERSION "edf00dff99f6c40d67a30c0e22a8191c5d2ed9d6"
*DESIGN_FLOW "NAME_SCOPE LOCAL" "PIN_CAP NONE"
*DIVIDER /
*DELIMITER :
*BUS_DELIMITER []
*T_UNIT 1 NS
*C_UNIT 1 PF
*R_UNIT 1 OHM
*L_UNIT 1 HENRY

*NAME_MAP
*3 a[0]
*4 a[1]
*5 a[2]
*6 a[3]
*7 a[4]
*8 a[5]
*9 a[6]
*10 a[7]
*11 b[0]
*12 b[1]
*13 b[2]
*14 b[3]
*15 b[4]
*16 b[5]
*17 b[6]
*18 b[7]
*19 clk
*20 product[0]
*21 product[10]
*22 product[11]
*23 product[12]
*24 product[13]
*25 product[14]
*26 product[15]
*27 product[1]
*28 product[2]
*29 product[3]
*30 product[4]
*31 product[5]
*32 product[6]
*33 product[7]
*34 product[8]
*35 product[9]
*36 rst
*37 _0000_
*38 _0001_
*39 _0002_
*40 _0003_
*41 _0004_
*42 _0005_
*43 _0006_
*44 _0007_
*45 _0008_
*46 _0009_
*47 _0010_
*48 _0011_
*49 _0012_
*50 _0013_
*51 _0014_
*52 _0015_
*53 _0016_
*54 _0017_
*55 _0018_
*56 _0019_
*57 _0020_
*58 _0021_
*59 _0022_
*60 _0023_
*61 _0024_
*62 _0025_
*63 _0026_
*64 _0027_
*65 _0028_
*66 _0029_
*67 _0030_
*68 _0031_
*69 _0032_
*70 _0033_
*71 _0034_
*72 _0035_
*73 _0036_
*74 _0037_
*75 _0038_
*76 _0039_
*77 _0040_
*78 _0041_
*79 _0042_
*80 _0043_
*81 _0044_
*82 _0045_
*83 _0046_
*84 _0047_
*85 _0048_
*86 _0049_
*87 _0050_
*88 _0051_
*89 _0052_
*90 _0053_
*91 _0054_
*92 _0055_
*93 _0056_
*94 _0057_
*95 _0058_
*96 _0059_
*97 _0060_
*98 _0061_
*99 _0062_
*100 _0063_
*101 _0064_
*102 _0065_
*103 _0066_
*104 _0067_
*105 _0068_
*106 _0069_
*107 _0070_
*108 _0071_
*109 _0072_
*110 _0073_
*111 _0074_
*112 _0075_
*113 _0076_
*114 _0077_
*115 _0078_
*116 _0079_
*117 _0080_
*118 _0081_
*119 _0082_
*120 _0083_
*121 _0084_
*122 _0085_
*123 _0086_
*124 _0087_
*125 _0088_
*126 _0089_
*127 _0090_
*128 _0091_
*129 _0092_
*130 _0093_
*131 _0094_
*132 _0095_
*133 _0096_
*134 _0097_
*135 _0098_
*136 _0099_
*137 _0100_
*138 _0101_
*139 _0102_
*140 _0103_
*141 _0104_
*142 _0105_
*143 _0106_
*144 _0107_
*145 _0108_
*146 _0109_
*147 _0110_
*148 _0111_
*149 _0112_
*150 _0113_
*151 _0114_
*152 _0115_
*153 _0116_
*154 _0117_
*155 _0118_
*156 _0119_
*157 _0120_
*158 _0121_
*159 _0122_
*160 _0123_
*161 _0124_
*162 _0125_
*163 _0126_
*164 _0127_
*165 _0128_
*166 _0129_
*167 _0130_
*168 _0131_
*169 _0132_
*170 _0133_
*171 _0134_
*172 _0135_
*173 _0136_
*174 _0137_
*175 _0138_
*176 _0139_
*177 _0140_
*178 _0141_
*179 _0142_
*180 _0143_
*181 _0144_
*182 _0145_
*183 _0146_
*184 _0147_
*185 _0148_
*186 _0149_
*187 _0150_
*188 _0151_
*189 _0152_
*190 _0153_
*191 _0154_
*192 _0155_
*193 _0156_
*194 _0157_
*195 _0158_
*196 _0159_
*197 _0160_
*198 _0161_
*199 _0162_
*200 _0163_
*201 _0164_
*202 _0165_
*203 _0166_
*204 _0167_
*205 _0168_
*206 _0169_
*207 _0170_
*208 _0171_
*209 _0172_
*210 _0173_
*211 _0174_
*212 _0175_
*213 _0176_
*214 _0177_
*215 _0178_
*216 _0179_
*217 _0180_
*218 _0181_
*219 _0182_
*220 _0183_
*221 _0184_
*222 _0185_
*223 _0186_
*224 _0187_
*225 _0188_
*226 _0189_
*227 _0190_
*228 _0191_
*229 _0192_
*230 _0193_
*231 _0194_
*232 _0195_
*233 _0196_
*234 _0197_
*235 _0198_
*236 _0199_
*237 _0200_
*238 _0201_
*239 _0202_
*240 _0203_
*241 _0204_
*242 _0205_
*243 _0206_
*244 _0207_
*245 _0208_
*246 _0209_
*247 _0210_
*248 _0211_
*249 _0212_
*250 _0213_
*251 _0214_
*252 _0215_
*253 _0216_
*254 _0217_
*255 _0218_
*256 _0219_
*257 _0220_
*258 _0221_
*259 _0222_
*260 _0223_
*261 _0224_
*262 _0225_
*263 _0226_
*264 _0227_
*265 _0228_
*266 _0229_
*267 _0230_
*268 _0231_
*269 _0232_
*270 _0233_
*271 _0234_
*272 _0235_
*273 _0236_
*274 _0237_
*275 _0238_
*276 _0239_
*277 _0240_
*278 _0241_
*279 _0242_
*280 _0243_
*281 _0244_
*282 _0245_
*283 _0246_
*284 _0247_
*285 _0248_
*286 _0249_
*287 _0250_
*288 _0251_
*289 _0252_
*290 _0253_
*291 _0254_
*292 _0255_
*293 _0256_
*294 _0257_
*295 _0258_
*296 _0259_
*297 _0260_
*298 _0261_
*299 _0262_
*300 _0263_
*301 _0264_
*302 _0265_
*303 _0266_
*304 _0267_
*305 _0268_
*306 _0269_
*307 _0270_
*308 _0271_
*309 _0272_
*310 _0273_
*311 _0274_
*312 _0275_
*313 _0276_
*314 _0277_
*315 _0278_
*316 _0279_
*317 _0280_
*318 _0281_
*319 _0282_
*320 _0283_
*321 _0284_
*322 _0285_
*323 _0286_
*324 _0287_
*325 _0288_
*326 _0289_
*327 _0290_
*328 _0291_
*329 _0292_
*330 _0293_
*331 _0294_
*332 _0295_
*333 _0296_
*334 _0297_
*335 _0298_
*336 _0299_
*337 _0300_
*338 _0301_
*339 _0302_
*340 _0303_
*341 _0304_
*342 _0305_
*343 _0306_
*344 _0307_
*345 _0308_
*346 _0309_
*347 _0310_
*348 _0311_
*349 _0312_
*350 _0313_
*351 _0314_
*352 _0315_
*353 _0316_
*354 _0317_
*355 _0318_
*356 _0319_
*357 _0320_
*358 _0321_
*359 _0322_
*360 _0323_
*361 _0324_
*362 _0325_
*363 _0326_
*364 _0327_
*365 _0328_
*366 _0329_
*367 _0330_
*368 _0331_
*369 _0332_
*370 _0333_
*371 _0334_
*372 _0335_
*373 _0336_
*374 _0337_
*375 _0338_
*376 _0339_
*377 _0340_
*378 _0341_
*379 _0342_
*380 _0343_
*381 _0344_
*382 _0345_
*383 _0346_
*384 _0347_
*385 _0348_
*386 _0349_
*387 _0350_
*388 _0351_
*389 _0352_
*390 _0353_
*391 _0354_
*392 _0355_
*393 _0356_
*394 _0357_
*395 _0358_
*396 _0359_
*397 _0360_
*398 _0361_
*399 _0362_
*400 _0363_
*401 _0364_
*402 _0365_
*403 _0366_
*404 _0367_
*405 _0368_
*406 _0369_
*407 _0370_
*408 _0371_
*409 _0372_
*410 _0373_
*411 _0374_
*412 _0375_
*413 _0376_
*414 _0377_
*415 _0378_
*416 _0379_
*417 _0380_
*418 _0381_
*419 _0382_
*420 _0383_
*421 _0384_
*422 _0385_
*423 _0386_
*424 _0387_
*425 _0388_
*426 _0389_
*427 _0390_
*428 _0391_
*429 _0392_
*430 _0393_
*431 _0394_
*432 _0395_
*433 _0396_
*434 _0397_
*435 _0398_
*436 _0399_
*437 _0400_
*438 _0401_
*439 _0402_
*440 _0403_
*441 _0404_
*442 _0405_
*443 _0406_
*444 _0407_
*445 _0408_
*446 _0409_
*447 _0410_
*448 _0411_
*449 _0412_
*450 _0413_
*451 _0414_
*452 _0415_
*453 _0416_
*454 _0417_
*455 _0418_
*456 _0419_
*457 _0420_
*458 _0421_
*459 _0422_
*460 _0423_
*461 _0424_
*462 _0425_
*463 _0426_
*464 _0427_
*465 _0428_
*466 _0429_
*467 _0430_
*468 _0431_
*469 _0432_
*470 _0433_
*471 _0434_
*472 _0435_
*473 _0436_
*474 _0437_
*475 _0438_
*476 _0439_
*477 _0440_
*478 _0441_
*479 _0442_
*480 _0443_
*481 _0444_
*482 _0445_
*483 _0446_
*484 a0\[0\]
*485 a0\[1\]
*486 a1\[0\]
*487 a1\[1\]
*488 a2\[0\]
*489 a2\[1\]
*490 a3\[0\]
*491 a3\[1\]
*492 b0\[0\]
*493 b0\[1\]
*494 b1\[0\]
*495 b1\[1\]
*496 b2\[0\]
*497 b2\[1\]
*498 b3\[0\]
*499 b3\[1\]
*500 clknet_0_clk
*501 clknet_4_0_0_clk
*502 clknet_4_10_0_clk
*503 clknet_4_11_0_clk
*504 clknet_4_12_0_clk
*505 clknet_4_13_0_clk
*506 clknet_4_14_0_clk
*507 clknet_4_15_0_clk
*508 clknet_4_1_0_clk
*509 clknet_4_2_0_clk
*510 clknet_4_3_0_clk
*511 clknet_4_4_0_clk
*512 clknet_4_5_0_clk
*513 clknet_4_6_0_clk
*514 clknet_4_7_0_clk
*515 clknet_4_8_0_clk
*516 clknet_4_9_0_clk
*517 final_sum\[0\]
*518 final_sum\[10\]
*519 final_sum\[11\]
*520 final_sum\[12\]
*521 final_sum\[13\]
*522 final_sum\[14\]
*523 final_sum\[15\]
*524 final_sum\[1\]
*525 final_sum\[2\]
*526 final_sum\[3\]
*527 final_sum\[4\]
*528 final_sum\[5\]
*529 final_sum\[6\]
*530 final_sum\[7\]
*531 final_sum\[8\]
*532 final_sum\[9\]
*533 g1\[0\]
*534 g1\[1\]
*535 g1\[2\]
*536 g1\[3\]
*537 g1\[4\]
*538 g2\[0\]
*539 g2\[1\]
*540 g2\[2\]
*541 g2\[3\]
*542 g2\[4\]
*543 g2\[5\]
*544 g3\[0\]
*545 g3\[1\]
*546 g3\[2\]
*547 g3\[3\]
*548 g3\[4\]
*549 g3\[5\]
*550 g4\[0\]
*551 g4\[1\]
*552 g4\[2\]
*553 g4\[3\]
*554 g4\[4\]
*555 g4\[5\]
*556 g5\[0\]
*557 g5\[1\]
*558 g5\[2\]
*559 g5\[3\]
*560 g5\[4\]
*561 high_sum\[10\]
*562 high_sum\[11\]
*563 high_sum\[12\]
*564 high_sum\[13\]
*565 high_sum\[14\]
*566 high_sum\[15\]
*567 high_sum\[8\]
*568 high_sum\[9\]
*569 low_sum\[0\]
*570 low_sum\[10\]
*571 low_sum\[11\]
*572 low_sum\[1\]
*573 low_sum\[2\]
*574 low_sum\[3\]
*575 low_sum\[4\]
*576 low_sum\[5\]
*577 low_sum\[6\]
*578 low_sum\[7\]
*579 low_sum\[8\]
*580 low_sum\[9\]
*581 net1
*582 net10
*583 net100
*584 net101
*585 net102
*586 net103
*587 net104
*588 net105
*589 net106
*590 net107
*591 net108
*592 net109
*593 net11
*594 net110
*595 net111
*596 net112
*597 net113
*598 net114
*599 net115
*600 net116
*601 net117
*602 net118
*603 net119
*604 net12
*605 net120
*606 net121
*607 net122
*608 net123
*609 net124
*610 net125
*611 net126
*612 net127
*613 net13
*614 net14
*615 net15
*616 net16
*617 net17
*618 net18
*619 net19
*620 net2
*621 net20
*622 net21
*623 net22
*624 net23
*625 net24
*626 net25
*627 net26
*628 net27
*629 net28
*630 net29
*631 net3
*632 net30
*633 net31
*634 net32
*635 net33
*636 net34
*637 net35
*638 net36
*639 net37
*640 net38
*641 net39
*642 net4
*643 net40
*644 net41
*645 net42
*646 net43
*647 net44
*648 net45
*649 net46
*650 net47
*651 net48
*652 net49
*653 net5
*654 net50
*655 net51
*656 net52
*657 net53
*658 net54
*659 net55
*660 net56
*661 net57
*662 net58
*663 net59
*664 net6
*665 net60
*666 net61
*667 net62
*668 net63
*669 net64
*670 net65
*671 net66
*672 net67
*673 net68
*674 net69
*675 net7
*676 net70
*677 net71
*678 net72
*679 net73
*680 net74
*681 net75
*682 net76
*683 net77
*684 net78
*685 net79
*686 net8
*687 net80
*688 net81
*689 net82
*690 net83
*691 net84
*692 net85
*693 net86
*694 net87
*695 net88
*696 net89
*697 net9
*698 net90
*699 net91
*700 net92
*701 net93
*702 net94
*703 net95
*704 net96
*705 net97
*706 net98
*707 net99
*708 pp\[0\]\[0\]
*709 pp\[0\]\[1\]
*710 pp\[0\]\[2\]
*711 pp\[0\]\[3\]
*712 pp\[10\]\[0\]
*713 pp\[10\]\[1\]
*714 pp\[10\]\[2\]
*715 pp\[10\]\[3\]
*716 pp\[11\]\[0\]
*717 pp\[11\]\[1\]
*718 pp\[11\]\[2\]
*719 pp\[11\]\[3\]
*720 pp\[12\]\[0\]
*721 pp\[12\]\[1\]
*722 pp\[12\]\[2\]
*723 pp\[12\]\[3\]
*724 pp\[13\]\[0\]
*725 pp\[13\]\[1\]
*726 pp\[13\]\[2\]
*727 pp\[13\]\[3\]
*728 pp\[14\]\[0\]
*729 pp\[14\]\[1\]
*730 pp\[14\]\[2\]
*731 pp\[14\]\[3\]
*732 pp\[15\]\[0\]
*733 pp\[15\]\[1\]
*734 pp\[15\]\[2\]
*735 pp\[15\]\[3\]
*736 pp\[1\]\[0\]
*737 pp\[1\]\[1\]
*738 pp\[1\]\[2\]
*739 pp\[1\]\[3\]
*740 pp\[2\]\[0\]
*741 pp\[2\]\[1\]
*742 pp\[2\]\[2\]
*743 pp\[2\]\[3\]
*744 pp\[3\]\[0\]
*745 pp\[3\]\[1\]
*746 pp\[3\]\[2\]
*747 pp\[3\]\[3\]
*748 pp\[4\]\[0\]
*749 pp\[4\]\[1\]
*750 pp\[4\]\[2\]
*751 pp\[4\]\[3\]
*752 pp\[5\]\[0\]
*753 pp\[5\]\[1\]
*754 pp\[5\]\[2\]
*755 pp\[5\]\[3\]
*756 pp\[6\]\[0\]
*757 pp\[6\]\[1\]
*758 pp\[6\]\[2\]
*759 pp\[6\]\[3\]
*760 pp\[7\]\[0\]
*761 pp\[7\]\[1\]
*762 pp\[7\]\[2\]
*763 pp\[7\]\[3\]
*764 pp\[8\]\[0\]
*765 pp\[8\]\[1\]
*766 pp\[8\]\[2\]
*767 pp\[8\]\[3\]
*768 pp\[9\]\[0\]
*769 pp\[9\]\[1\]
*770 pp\[9\]\[2\]
*771 pp\[9\]\[3\]
*772 FILLER_0_103
*773 FILLER_0_111
*774 FILLER_0_113
*775 FILLER_0_125
*776 FILLER_0_137
*777 FILLER_0_141
*778 FILLER_0_15
*779 FILLER_0_153
*780 FILLER_0_164
*781 FILLER_0_169
*782 FILLER_0_178
*783 FILLER_0_184
*784 FILLER_0_197
*785 FILLER_0_209
*786 FILLER_0_217
*787 FILLER_0_223
*788 FILLER_0_225
*789 FILLER_0_237
*790 FILLER_0_249
*791 FILLER_0_253
*792 FILLER_0_27
*793 FILLER_0_29
*794 FILLER_0_3
*795 FILLER_0_41
*796 FILLER_0_53
*797 FILLER_0_57
*798 FILLER_0_62
*799 FILLER_0_76
*800 FILLER_0_83
*801 FILLER_0_85
*802 FILLER_0_91
*803 FILLER_10_138
*804 FILLER_10_152
*805 FILLER_10_160
*806 FILLER_10_168
*807 FILLER_10_180
*808 FILLER_10_192
*809 FILLER_10_197
*810 FILLER_10_201
*811 FILLER_10_21
*812 FILLER_10_210
*813 FILLER_10_222
*814 FILLER_10_253
*815 FILLER_10_27
*816 FILLER_10_29
*817 FILLER_10_37
*818 FILLER_10_43
*819 FILLER_10_66
*820 FILLER_10_78
*821 FILLER_10_9
*822 FILLER_11_108
*823 FILLER_11_113
*824 FILLER_11_119
*825 FILLER_11_13
*826 FILLER_11_143
*827 FILLER_11_159
*828 FILLER_11_17
*829 FILLER_11_176
*830 FILLER_11_188
*831 FILLER_11_194
*832 FILLER_11_200
*833 FILLER_11_256
*834 FILLER_11_29
*835 FILLER_11_41
*836 FILLER_11_77
*837 FILLER_11_81
*838 FILLER_11_87
*839 FILLER_11_9
*840 FILLER_11_95
*841 FILLER_12_117
*842 FILLER_12_129
*843 FILLER_12_137
*844 FILLER_12_141
*845 FILLER_12_154
*846 FILLER_12_164
*847 FILLER_12_175
*848 FILLER_12_200
*849 FILLER_12_212
*850 FILLER_12_224
*851 FILLER_12_232
*852 FILLER_12_236
*853 FILLER_12_24
*854 FILLER_12_248
*855 FILLER_12_253
*856 FILLER_12_29
*857 FILLER_12_46
*858 FILLER_13_106
*859 FILLER_13_117
*860 FILLER_13_125
*861 FILLER_13_167
*862 FILLER_13_169
*863 FILLER_13_177
*864 FILLER_13_193
*865 FILLER_13_202
*866 FILLER_13_214
*867 FILLER_13_222
*868 FILLER_13_225
*869 FILLER_13_237
*870 FILLER_13_249
*871 FILLER_13_29
*872 FILLER_13_43
*873 FILLER_13_54
*874 FILLER_13_72
*875 FILLER_13_84
*876 FILLER_14_114
*877 FILLER_14_129
*878 FILLER_14_133
*879 FILLER_14_138
*880 FILLER_14_144
*881 FILLER_14_150
*882 FILLER_14_171
*883 FILLER_14_197
*884 FILLER_14_209
*885 FILLER_14_221
*886 FILLER_14_23
*887 FILLER_14_233
*888 FILLER_14_245
*889 FILLER_14_251
*890 FILLER_14_253
*891 FILLER_14_37
*892 FILLER_14_44
*893 FILLER_14_66
*894 FILLER_14_73
*895 FILLER_14_81
*896 FILLER_14_85
*897 FILLER_15_101
*898 FILLER_15_109
*899 FILLER_15_113
*900 FILLER_15_12
*901 FILLER_15_16
*902 FILLER_15_163
*903 FILLER_15_167
*904 FILLER_15_175
*905 FILLER_15_187
*906 FILLER_15_195
*907 FILLER_15_200
*908 FILLER_15_212
*909 FILLER_15_216
*910 FILLER_15_22
*911 FILLER_15_225
*912 FILLER_15_237
*913 FILLER_15_26
*914 FILLER_15_32
*915 FILLER_15_49
*916 FILLER_15_55
*917 FILLER_15_57
*918 FILLER_15_65
*919 FILLER_15_78
*920 FILLER_15_86
*921 FILLER_16_104
*922 FILLER_16_116
*923 FILLER_16_128
*924 FILLER_16_141
*925 FILLER_16_153
*926 FILLER_16_161
*927 FILLER_16_172
*928 FILLER_16_222
*929 FILLER_16_251
*930 FILLER_16_256
*931 FILLER_16_3
*932 FILLER_16_32
*933 FILLER_16_44
*934 FILLER_16_52
*935 FILLER_16_72
*936 FILLER_16_92
*937 FILLER_17_104
*938 FILLER_17_113
*939 FILLER_17_125
*940 FILLER_17_137
*941 FILLER_17_149
*942 FILLER_17_161
*943 FILLER_17_167
*944 FILLER_17_169
*945 FILLER_17_175
*946 FILLER_17_196
*947 FILLER_17_213
*948 FILLER_17_221
*949 FILLER_17_233
*950 FILLER_17_241
*951 FILLER_17_246
*952 FILLER_17_258
*953 FILLER_17_27
*954 FILLER_17_80
*955 FILLER_17_92
*956 FILLER_18_109
*957 FILLER_18_121
*958 FILLER_18_129
*959 FILLER_18_135
*960 FILLER_18_139
*961 FILLER_18_141
*962 FILLER_18_153
*963 FILLER_18_165
*964 FILLER_18_195
*965 FILLER_18_200
*966 FILLER_18_212
*967 FILLER_18_224
*968 FILLER_18_236
*969 FILLER_18_248
*970 FILLER_18_253
*971 FILLER_18_26
*972 FILLER_18_29
*973 FILLER_18_83
*974 FILLER_19_117
*975 FILLER_19_140
*976 FILLER_19_15
*977 FILLER_19_151
*978 FILLER_19_163
*979 FILLER_19_167
*980 FILLER_19_169
*981 FILLER_19_193
*982 FILLER_19_205
*983 FILLER_19_217
*984 FILLER_19_223
*985 FILLER_19_225
*986 FILLER_19_237
*987 FILLER_19_249
*988 FILLER_19_27
*989 FILLER_19_39
*990 FILLER_19_6
*991 FILLER_19_60
*992 FILLER_19_72
*993 FILLER_19_79
*994 FILLER_1_100
*995 FILLER_1_139
*996 FILLER_1_147
*997 FILLER_1_15
*998 FILLER_1_169
*999 FILLER_1_213
*1000 FILLER_1_221
*1001 FILLER_1_225
*1002 FILLER_1_237
*1003 FILLER_1_249
*1004 FILLER_1_27
*1005 FILLER_1_3
*1006 FILLER_1_31
*1007 FILLER_1_52
*1008 FILLER_20_103
*1009 FILLER_20_110
*1010 FILLER_20_122
*1011 FILLER_20_130
*1012 FILLER_20_134
*1013 FILLER_20_145
*1014 FILLER_20_15
*1015 FILLER_20_157
*1016 FILLER_20_165
*1017 FILLER_20_177
*1018 FILLER_20_189
*1019 FILLER_20_195
*1020 FILLER_20_197
*1021 FILLER_20_209
*1022 FILLER_20_221
*1023 FILLER_20_23
*1024 FILLER_20_233
*1025 FILLER_20_245
*1026 FILLER_20_251
*1027 FILLER_20_253
*1028 FILLER_20_29
*1029 FILLER_20_3
*1030 FILLER_20_54
*1031 FILLER_20_66
*1032 FILLER_20_74
*1033 FILLER_20_85
*1034 FILLER_20_93
*1035 FILLER_21_108
*1036 FILLER_21_113
*1037 FILLER_21_132
*1038 FILLER_21_148
*1039 FILLER_21_15
*1040 FILLER_21_154
*1041 FILLER_21_164
*1042 FILLER_21_169
*1043 FILLER_21_181
*1044 FILLER_21_196
*1045 FILLER_21_202
*1046 FILLER_21_214
*1047 FILLER_21_222
*1048 FILLER_21_225
*1049 FILLER_21_237
*1050 FILLER_21_249
*1051 FILLER_21_27
*1052 FILLER_21_3
*1053 FILLER_21_39
*1054 FILLER_21_46
*1055 FILLER_21_54
*1056 FILLER_21_62
*1057 FILLER_21_95
*1058 FILLER_22_119
*1059 FILLER_22_148
*1060 FILLER_22_15
*1061 FILLER_22_170
*1062 FILLER_22_174
*1063 FILLER_22_195
*1064 FILLER_22_21
*1065 FILLER_22_213
*1066 FILLER_22_225
*1067 FILLER_22_237
*1068 FILLER_22_249
*1069 FILLER_22_253
*1070 FILLER_22_3
*1071 FILLER_22_52
*1072 FILLER_22_60
*1073 FILLER_22_82
*1074 FILLER_22_85
*1075 FILLER_22_97
*1076 FILLER_23_100
*1077 FILLER_23_107
*1078 FILLER_23_113
*1079 FILLER_23_15
*1080 FILLER_23_169
*1081 FILLER_23_196
*1082 FILLER_23_21
*1083 FILLER_23_220
*1084 FILLER_23_225
*1085 FILLER_23_237
*1086 FILLER_23_249
*1087 FILLER_23_254
*1088 FILLER_23_3
*1089 FILLER_23_50
*1090 FILLER_23_57
*1091 FILLER_23_82
*1092 FILLER_23_94
*1093 FILLER_24_109
*1094 FILLER_24_11
*1095 FILLER_24_125
*1096 FILLER_24_131
*1097 FILLER_24_137
*1098 FILLER_24_141
*1099 FILLER_24_15
*1100 FILLER_24_158
*1101 FILLER_24_170
*1102 FILLER_24_182
*1103 FILLER_24_217
*1104 FILLER_24_229
*1105 FILLER_24_259
*1106 FILLER_24_27
*1107 FILLER_24_29
*1108 FILLER_24_3
*1109 FILLER_24_52
*1110 FILLER_24_60
*1111 FILLER_24_85
*1112 FILLER_24_93
*1113 FILLER_25_107
*1114 FILLER_25_111
*1115 FILLER_25_113
*1116 FILLER_25_149
*1117 FILLER_25_161
*1118 FILLER_25_167
*1119 FILLER_25_169
*1120 FILLER_25_181
*1121 FILLER_25_189
*1122 FILLER_25_196
*1123 FILLER_25_209
*1124 FILLER_25_220
*1125 FILLER_25_257
*1126 FILLER_25_26
*1127 FILLER_25_38
*1128 FILLER_25_48
*1129 FILLER_25_69
*1130 FILLER_25_83
*1131 FILLER_25_95
*1132 FILLER_26_104
*1133 FILLER_26_116
*1134 FILLER_26_12
*1135 FILLER_26_128
*1136 FILLER_26_141
*1137 FILLER_26_156
*1138 FILLER_26_16
*1139 FILLER_26_168
*1140 FILLER_26_191
*1141 FILLER_26_195
*1142 FILLER_26_208
*1143 FILLER_26_212
*1144 FILLER_26_224
*1145 FILLER_26_251
*1146 FILLER_26_256
*1147 FILLER_26_29
*1148 FILLER_26_41
*1149 FILLER_26_53
*1150 FILLER_26_6
*1151 FILLER_26_65
*1152 FILLER_26_71
*1153 FILLER_26_78
*1154 FILLER_26_92
*1155 FILLER_27_105
*1156 FILLER_27_111
*1157 FILLER_27_113
*1158 FILLER_27_125
*1159 FILLER_27_137
*1160 FILLER_27_145
*1161 FILLER_27_162
*1162 FILLER_27_192
*1163 FILLER_27_220
*1164 FILLER_27_235
*1165 FILLER_27_26
*1166 FILLER_27_39
*1167 FILLER_27_52
*1168 FILLER_27_57
*1169 FILLER_27_69
*1170 FILLER_27_77
*1171 FILLER_28_12
*1172 FILLER_28_141
*1173 FILLER_28_153
*1174 FILLER_28_16
*1175 FILLER_28_182
*1176 FILLER_28_208
*1177 FILLER_28_216
*1178 FILLER_28_228
*1179 FILLER_28_240
*1180 FILLER_28_253
*1181 FILLER_28_37
*1182 FILLER_28_6
*1183 FILLER_28_62
*1184 FILLER_28_66
*1185 FILLER_28_72
*1186 FILLER_28_94
*1187 FILLER_28_99
*1188 FILLER_29_100
*1189 FILLER_29_113
*1190 FILLER_29_117
*1191 FILLER_29_136
*1192 FILLER_29_148
*1193 FILLER_29_160
*1194 FILLER_29_209
*1195 FILLER_29_221
*1196 FILLER_29_225
*1197 FILLER_29_232
*1198 FILLER_29_244
*1199 FILLER_29_256
*1200 FILLER_29_260
*1201 FILLER_29_80
*1202 FILLER_29_96
*1203 FILLER_2_139
*1204 FILLER_2_15
*1205 FILLER_2_193
*1206 FILLER_2_205
*1207 FILLER_2_217
*1208 FILLER_2_229
*1209 FILLER_2_241
*1210 FILLER_2_249
*1211 FILLER_2_253
*1212 FILLER_2_257
*1213 FILLER_2_27
*1214 FILLER_2_29
*1215 FILLER_2_3
*1216 FILLER_2_34
*1217 FILLER_2_74
*1218 FILLER_30_118
*1219 FILLER_30_12
*1220 FILLER_30_126
*1221 FILLER_30_133
*1222 FILLER_30_139
*1223 FILLER_30_141
*1224 FILLER_30_153
*1225 FILLER_30_16
*1226 FILLER_30_165
*1227 FILLER_30_186
*1228 FILLER_30_194
*1229 FILLER_30_200
*1230 FILLER_30_204
*1231 FILLER_30_231
*1232 FILLER_30_256
*1233 FILLER_30_260
*1234 FILLER_30_29
*1235 FILLER_30_54
*1236 FILLER_30_6
*1237 FILLER_30_73
*1238 FILLER_30_85
*1239 FILLER_31_110
*1240 FILLER_31_113
*1241 FILLER_31_125
*1242 FILLER_31_140
*1243 FILLER_31_152
*1244 FILLER_31_163
*1245 FILLER_31_167
*1246 FILLER_31_169
*1247 FILLER_31_205
*1248 FILLER_31_215
*1249 FILLER_31_222
*1250 FILLER_31_253
*1251 FILLER_31_26
*1252 FILLER_31_54
*1253 FILLER_32_109
*1254 FILLER_32_12
*1255 FILLER_32_121
*1256 FILLER_32_141
*1257 FILLER_32_16
*1258 FILLER_32_175
*1259 FILLER_32_217
*1260 FILLER_32_229
*1261 FILLER_32_253
*1262 FILLER_32_260
*1263 FILLER_32_29
*1264 FILLER_32_41
*1265 FILLER_32_6
*1266 FILLER_32_66
*1267 FILLER_32_72
*1268 FILLER_32_78
*1269 FILLER_33_102
*1270 FILLER_33_110
*1271 FILLER_33_123
*1272 FILLER_33_137
*1273 FILLER_33_145
*1274 FILLER_33_167
*1275 FILLER_33_169
*1276 FILLER_33_204
*1277 FILLER_33_223
*1278 FILLER_33_23
*1279 FILLER_33_259
*1280 FILLER_33_27
*1281 FILLER_33_57
*1282 FILLER_33_83
*1283 FILLER_34_109
*1284 FILLER_34_121
*1285 FILLER_34_132
*1286 FILLER_34_141
*1287 FILLER_34_149
*1288 FILLER_34_172
*1289 FILLER_34_18
*1290 FILLER_34_197
*1291 FILLER_34_209
*1292 FILLER_34_213
*1293 FILLER_34_217
*1294 FILLER_34_229
*1295 FILLER_34_236
*1296 FILLER_34_248
*1297 FILLER_34_253
*1298 FILLER_34_26
*1299 FILLER_34_29
*1300 FILLER_34_36
*1301 FILLER_34_44
*1302 FILLER_34_55
*1303 FILLER_34_6
*1304 FILLER_34_67
*1305 FILLER_34_72
*1306 FILLER_34_85
*1307 FILLER_34_97
*1308 FILLER_35_106
*1309 FILLER_35_113
*1310 FILLER_35_121
*1311 FILLER_35_147
*1312 FILLER_35_15
*1313 FILLER_35_151
*1314 FILLER_35_155
*1315 FILLER_35_163
*1316 FILLER_35_167
*1317 FILLER_35_194
*1318 FILLER_35_198
*1319 FILLER_35_202
*1320 FILLER_35_214
*1321 FILLER_35_222
*1322 FILLER_35_225
*1323 FILLER_35_237
*1324 FILLER_35_249
*1325 FILLER_35_27
*1326 FILLER_35_3
*1327 FILLER_35_39
*1328 FILLER_35_51
*1329 FILLER_35_55
*1330 FILLER_35_57
*1331 FILLER_35_69
*1332 FILLER_35_91
*1333 FILLER_35_97
*1334 FILLER_36_106
*1335 FILLER_36_121
*1336 FILLER_36_136
*1337 FILLER_36_15
*1338 FILLER_36_181
*1339 FILLER_36_190
*1340 FILLER_36_194
*1341 FILLER_36_217
*1342 FILLER_36_225
*1343 FILLER_36_231
*1344 FILLER_36_253
*1345 FILLER_36_27
*1346 FILLER_36_29
*1347 FILLER_36_3
*1348 FILLER_36_35
*1349 FILLER_36_43
*1350 FILLER_36_55
*1351 FILLER_36_61
*1352 FILLER_36_80
*1353 FILLER_36_98
*1354 FILLER_37_110
*1355 FILLER_37_113
*1356 FILLER_37_142
*1357 FILLER_37_15
*1358 FILLER_37_156
*1359 FILLER_37_177
*1360 FILLER_37_222
*1361 FILLER_37_256
*1362 FILLER_37_27
*1363 FILLER_37_3
*1364 FILLER_37_51
*1365 FILLER_37_55
*1366 FILLER_37_57
*1367 FILLER_37_64
*1368 FILLER_37_68
*1369 FILLER_37_93
*1370 FILLER_38_118
*1371 FILLER_38_130
*1372 FILLER_38_136
*1373 FILLER_38_141
*1374 FILLER_38_15
*1375 FILLER_38_197
*1376 FILLER_38_216
*1377 FILLER_38_248
*1378 FILLER_38_256
*1379 FILLER_38_27
*1380 FILLER_38_29
*1381 FILLER_38_3
*1382 FILLER_38_80
*1383 FILLER_38_88
*1384 FILLER_38_94
*1385 FILLER_39_107
*1386 FILLER_39_111
*1387 FILLER_39_113
*1388 FILLER_39_125
*1389 FILLER_39_131
*1390 FILLER_39_135
*1391 FILLER_39_147
*1392 FILLER_39_15
*1393 FILLER_39_156
*1394 FILLER_39_167
*1395 FILLER_39_172
*1396 FILLER_39_181
*1397 FILLER_39_193
*1398 FILLER_39_198
*1399 FILLER_39_210
*1400 FILLER_39_222
*1401 FILLER_39_225
*1402 FILLER_39_237
*1403 FILLER_39_27
*1404 FILLER_39_3
*1405 FILLER_39_39
*1406 FILLER_39_47
*1407 FILLER_39_55
*1408 FILLER_39_60
*1409 FILLER_39_68
*1410 FILLER_39_95
*1411 FILLER_3_105
*1412 FILLER_3_111
*1413 FILLER_3_113
*1414 FILLER_3_15
*1415 FILLER_3_167
*1416 FILLER_3_177
*1417 FILLER_3_181
*1418 FILLER_3_188
*1419 FILLER_3_200
*1420 FILLER_3_212
*1421 FILLER_3_225
*1422 FILLER_3_237
*1423 FILLER_3_249
*1424 FILLER_3_256
*1425 FILLER_3_260
*1426 FILLER_3_3
*1427 FILLER_40_112
*1428 FILLER_40_144
*1429 FILLER_40_15
*1430 FILLER_40_150
*1431 FILLER_40_194
*1432 FILLER_40_222
*1433 FILLER_40_239
*1434 FILLER_40_251
*1435 FILLER_40_253
*1436 FILLER_40_27
*1437 FILLER_40_29
*1438 FILLER_40_3
*1439 FILLER_40_41
*1440 FILLER_40_53
*1441 FILLER_40_91
*1442 FILLER_41_120
*1443 FILLER_41_15
*1444 FILLER_41_164
*1445 FILLER_41_189
*1446 FILLER_41_245
*1447 FILLER_41_257
*1448 FILLER_41_27
*1449 FILLER_41_3
*1450 FILLER_41_39
*1451 FILLER_41_51
*1452 FILLER_41_97
*1453 FILLER_42_113
*1454 FILLER_42_119
*1455 FILLER_42_15
*1456 FILLER_42_157
*1457 FILLER_42_161
*1458 FILLER_42_170
*1459 FILLER_42_183
*1460 FILLER_42_195
*1461 FILLER_42_209
*1462 FILLER_42_213
*1463 FILLER_42_234
*1464 FILLER_42_246
*1465 FILLER_42_253
*1466 FILLER_42_27
*1467 FILLER_42_29
*1468 FILLER_42_3
*1469 FILLER_42_41
*1470 FILLER_42_49
*1471 FILLER_42_72
*1472 FILLER_42_85
*1473 FILLER_43_109
*1474 FILLER_43_113
*1475 FILLER_43_125
*1476 FILLER_43_137
*1477 FILLER_43_141
*1478 FILLER_43_15
*1479 FILLER_43_153
*1480 FILLER_43_165
*1481 FILLER_43_169
*1482 FILLER_43_181
*1483 FILLER_43_193
*1484 FILLER_43_197
*1485 FILLER_43_209
*1486 FILLER_43_221
*1487 FILLER_43_233
*1488 FILLER_43_238
*1489 FILLER_43_245
*1490 FILLER_43_251
*1491 FILLER_43_253
*1492 FILLER_43_27
*1493 FILLER_43_29
*1494 FILLER_43_3
*1495 FILLER_43_41
*1496 FILLER_43_53
*1497 FILLER_43_57
*1498 FILLER_43_69
*1499 FILLER_43_81
*1500 FILLER_43_85
*1501 FILLER_43_97
*1502 FILLER_4_112
*1503 FILLER_4_137
*1504 FILLER_4_141
*1505 FILLER_4_151
*1506 FILLER_4_159
*1507 FILLER_4_165
*1508 FILLER_4_177
*1509 FILLER_4_189
*1510 FILLER_4_195
*1511 FILLER_4_197
*1512 FILLER_4_209
*1513 FILLER_4_221
*1514 FILLER_4_230
*1515 FILLER_4_3
*1516 FILLER_4_32
*1517 FILLER_4_40
*1518 FILLER_4_7
*1519 FILLER_4_72
*1520 FILLER_5_11
*1521 FILLER_5_110
*1522 FILLER_5_124
*1523 FILLER_5_132
*1524 FILLER_5_140
*1525 FILLER_5_175
*1526 FILLER_5_181
*1527 FILLER_5_213
*1528 FILLER_5_22
*1529 FILLER_5_259
*1530 FILLER_5_3
*1531 FILLER_5_60
*1532 FILLER_5_68
*1533 FILLER_5_72
*1534 FILLER_5_76
*1535 FILLER_5_80
*1536 FILLER_5_84
*1537 FILLER_6_138
*1538 FILLER_6_14
*1539 FILLER_6_161
*1540 FILLER_6_18
*1541 FILLER_6_190
*1542 FILLER_6_197
*1543 FILLER_6_209
*1544 FILLER_6_221
*1545 FILLER_6_229
*1546 FILLER_6_257
*1547 FILLER_6_26
*1548 FILLER_6_29
*1549 FILLER_6_42
*1550 FILLER_6_48
*1551 FILLER_6_6
*1552 FILLER_6_69
*1553 FILLER_6_82
*1554 FILLER_6_99
*1555 FILLER_7_108
*1556 FILLER_7_200
*1557 FILLER_7_212
*1558 FILLER_7_256
*1559 FILLER_7_26
*1560 FILLER_7_34
*1561 FILLER_7_40
*1562 FILLER_7_52
*1563 FILLER_7_57
*1564 FILLER_7_65
*1565 FILLER_7_82
*1566 FILLER_7_96
*1567 FILLER_8_103
*1568 FILLER_8_115
*1569 FILLER_8_127
*1570 FILLER_8_139
*1571 FILLER_8_141
*1572 FILLER_8_197
*1573 FILLER_8_226
*1574 FILLER_8_241
*1575 FILLER_8_249
*1576 FILLER_8_253
*1577 FILLER_8_26
*1578 FILLER_8_33
*1579 FILLER_8_52
*1580 FILLER_8_64
*1581 FILLER_8_70
*1582 FILLER_8_82
*1583 FILLER_8_91
*1584 FILLER_9_104
*1585 FILLER_9_110
*1586 FILLER_9_113
*1587 FILLER_9_125
*1588 FILLER_9_132
*1589 FILLER_9_140
*1590 FILLER_9_156
*1591 FILLER_9_169
*1592 FILLER_9_205
*1593 FILLER_9_215
*1594 FILLER_9_223
*1595 FILLER_9_225
*1596 FILLER_9_237
*1597 FILLER_9_249
*1598 FILLER_9_28
*1599 FILLER_9_3
*1600 FILLER_9_49
*1601 FILLER_9_55
*1602 FILLER_9_57
*1603 FILLER_9_69
*1604 FILLER_9_77
*1605 FILLER_9_84
*1606 FILLER_9_96
*1607 PHY_EDGE_ROW_0_Left_44
*1608 PHY_EDGE_ROW_0_Right_0
*1609 PHY_EDGE_ROW_10_Left_54
*1610 PHY_EDGE_ROW_10_Right_10
*1611 PHY_EDGE_ROW_11_Left_55
*1612 PHY_EDGE_ROW_11_Right_11
*1613 PHY_EDGE_ROW_12_Left_56
*1614 PHY_EDGE_ROW_12_Right_12
*1615 PHY_EDGE_ROW_13_Left_57
*1616 PHY_EDGE_ROW_13_Right_13
*1617 PHY_EDGE_ROW_14_Left_58
*1618 PHY_EDGE_ROW_14_Right_14
*1619 PHY_EDGE_ROW_15_Left_59
*1620 PHY_EDGE_ROW_15_Right_15
*1621 PHY_EDGE_ROW_16_Left_60
*1622 PHY_EDGE_ROW_16_Right_16
*1623 PHY_EDGE_ROW_17_Left_61
*1624 PHY_EDGE_ROW_17_Right_17
*1625 PHY_EDGE_ROW_18_Left_62
*1626 PHY_EDGE_ROW_18_Right_18
*1627 PHY_EDGE_ROW_19_Left_63
*1628 PHY_EDGE_ROW_19_Right_19
*1629 PHY_EDGE_ROW_1_Left_45
*1630 PHY_EDGE_ROW_1_Right_1
*1631 PHY_EDGE_ROW_20_Left_64
*1632 PHY_EDGE_ROW_20_Right_20
*1633 PHY_EDGE_ROW_21_Left_65
*1634 PHY_EDGE_ROW_21_Right_21
*1635 PHY_EDGE_ROW_22_Left_66
*1636 PHY_EDGE_ROW_22_Right_22
*1637 PHY_EDGE_ROW_23_Left_67
*1638 PHY_EDGE_ROW_23_Right_23
*1639 PHY_EDGE_ROW_24_Left_68
*1640 PHY_EDGE_ROW_24_Right_24
*1641 PHY_EDGE_ROW_25_Left_69
*1642 PHY_EDGE_ROW_25_Right_25
*1643 PHY_EDGE_ROW_26_Left_70
*1644 PHY_EDGE_ROW_26_Right_26
*1645 PHY_EDGE_ROW_27_Left_71
*1646 PHY_EDGE_ROW_27_Right_27
*1647 PHY_EDGE_ROW_28_Left_72
*1648 PHY_EDGE_ROW_28_Right_28
*1649 PHY_EDGE_ROW_29_Left_73
*1650 PHY_EDGE_ROW_29_Right_29
*1651 PHY_EDGE_ROW_2_Left_46
*1652 PHY_EDGE_ROW_2_Right_2
*1653 PHY_EDGE_ROW_30_Left_74
*1654 PHY_EDGE_ROW_30_Right_30
*1655 PHY_EDGE_ROW_31_Left_75
*1656 PHY_EDGE_ROW_31_Right_31
*1657 PHY_EDGE_ROW_32_Left_76
*1658 PHY_EDGE_ROW_32_Right_32
*1659 PHY_EDGE_ROW_33_Left_77
*1660 PHY_EDGE_ROW_33_Right_33
*1661 PHY_EDGE_ROW_34_Left_78
*1662 PHY_EDGE_ROW_34_Right_34
*1663 PHY_EDGE_ROW_35_Left_79
*1664 PHY_EDGE_ROW_35_Right_35
*1665 PHY_EDGE_ROW_36_Left_80
*1666 PHY_EDGE_ROW_36_Right_36
*1667 PHY_EDGE_ROW_37_Left_81
*1668 PHY_EDGE_ROW_37_Right_37
*1669 PHY_EDGE_ROW_38_Left_82
*1670 PHY_EDGE_ROW_38_Right_38
*1671 PHY_EDGE_ROW_39_Left_83
*1672 PHY_EDGE_ROW_39_Right_39
*1673 PHY_EDGE_ROW_3_Left_47
*1674 PHY_EDGE_ROW_3_Right_3
*1675 PHY_EDGE_ROW_40_Left_84
*1676 PHY_EDGE_ROW_40_Right_40
*1677 PHY_EDGE_ROW_41_Left_85
*1678 PHY_EDGE_ROW_41_Right_41
*1679 PHY_EDGE_ROW_42_Left_86
*1680 PHY_EDGE_ROW_42_Right_42
*1681 PHY_EDGE_ROW_43_Left_87
*1682 PHY_EDGE_ROW_43_Right_43
*1683 PHY_EDGE_ROW_4_Left_48
*1684 PHY_EDGE_ROW_4_Right_4
*1685 PHY_EDGE_ROW_5_Left_49
*1686 PHY_EDGE_ROW_5_Right_5
*1687 PHY_EDGE_ROW_6_Left_50
*1688 PHY_EDGE_ROW_6_Right_6
*1689 PHY_EDGE_ROW_7_Left_51
*1690 PHY_EDGE_ROW_7_Right_7
*1691 PHY_EDGE_ROW_8_Left_52
*1692 PHY_EDGE_ROW_8_Right_8
*1693 PHY_EDGE_ROW_9_Left_53
*1694 PHY_EDGE_ROW_9_Right_9
*1695 TAP_TAPCELL_ROW_0_88
*1696 TAP_TAPCELL_ROW_0_89
*1697 TAP_TAPCELL_ROW_0_90
*1698 TAP_TAPCELL_ROW_0_91
*1699 TAP_TAPCELL_ROW_0_92
*1700 TAP_TAPCELL_ROW_0_93
*1701 TAP_TAPCELL_ROW_0_94
*1702 TAP_TAPCELL_ROW_0_95
*1703 TAP_TAPCELL_ROW_0_96
*1704 TAP_TAPCELL_ROW_10_137
*1705 TAP_TAPCELL_ROW_10_138
*1706 TAP_TAPCELL_ROW_10_139
*1707 TAP_TAPCELL_ROW_10_140
*1708 TAP_TAPCELL_ROW_10_141
*1709 TAP_TAPCELL_ROW_11_142
*1710 TAP_TAPCELL_ROW_11_143
*1711 TAP_TAPCELL_ROW_11_144
*1712 TAP_TAPCELL_ROW_11_145
*1713 TAP_TAPCELL_ROW_12_146
*1714 TAP_TAPCELL_ROW_12_147
*1715 TAP_TAPCELL_ROW_12_148
*1716 TAP_TAPCELL_ROW_12_149
*1717 TAP_TAPCELL_ROW_12_150
*1718 TAP_TAPCELL_ROW_13_151
*1719 TAP_TAPCELL_ROW_13_152
*1720 TAP_TAPCELL_ROW_13_153
*1721 TAP_TAPCELL_ROW_13_154
*1722 TAP_TAPCELL_ROW_14_155
*1723 TAP_TAPCELL_ROW_14_156
*1724 TAP_TAPCELL_ROW_14_157
*1725 TAP_TAPCELL_ROW_14_158
*1726 TAP_TAPCELL_ROW_14_159
*1727 TAP_TAPCELL_ROW_15_160
*1728 TAP_TAPCELL_ROW_15_161
*1729 TAP_TAPCELL_ROW_15_162
*1730 TAP_TAPCELL_ROW_15_163
*1731 TAP_TAPCELL_ROW_16_164
*1732 TAP_TAPCELL_ROW_16_165
*1733 TAP_TAPCELL_ROW_16_166