* NGSPICE file created from mult.ext - technology: sky130A

* Black-box entry subcircuit for sky130_fd_sc_hd__fill_2 abstract view
.subckt sky130_fd_sc_hd__fill_2 VGND VNB VPB VPWR
.ends

* Black-box entry subcircuit for sky130_ef_sc_hd__decap_12 abstract view
.subckt sky130_ef_sc_hd__decap_12 VPWR VGND VPB VNB
.ends

* Black-box entry subcircuit for sky130_fd_sc_hd__decap_3 abstract view
.subckt sky130_fd_sc_hd__decap_3 VGND VNB VPB VPWR
.ends

* Black-box entry subcircuit for sky130_fd_sc_hd__fill_1 abstract view
.subckt sky130_fd_sc_hd__fill_1 VGND VNB VPB VPWR
.ends

* Black-box entry subcircuit for sky130_fd_sc_hd__dfrtp_1 abstract view
.subckt sky130_fd_sc_hd__dfrtp_1 CLK D RESET_B VGND VNB VPB VPWR Q
.ends

* Black-box entry subcircuit for sky130_fd_sc_hd__tapvpwrvgnd_1 abstract view
.subckt sky130_fd_sc_hd__tapvpwrvgnd_1 VGND VPWR
.ends

* Black-box entry subcircuit for sky130_fd_sc_hd__inv_2 abstract view
.subckt sky130_fd_sc_hd__inv_2 A VGND VNB VPB VPWR Y
.ends

* Black-box entry subcircuit for sky130_fd_sc_hd__decap_8 abstract view
.subckt sky130_fd_sc_hd__decap_8 VGND VNB VPB VPWR
.ends

* Black-box entry subcircuit for sky130_fd_sc_hd__clkbuf_8 abstract view
.subckt sky130_fd_sc_hd__clkbuf_8 A VGND VNB VPB VPWR X
.ends

* Black-box entry subcircuit for sky130_fd_sc_hd__xnor2_1 abstract view
.subckt sky130_fd_sc_hd__xnor2_1 A B VGND VNB VPB VPWR Y
.ends

* Black-box entry subcircuit for sky130_fd_sc_hd__and3_1 abstract view
.subckt sky130_fd_sc_hd__and3_1 A B C VGND VNB VPB VPWR X
.ends

* Black-box entry subcircuit for sky130_fd_sc_hd__nor2_1 abstract view
.subckt sky130_fd_sc_hd__nor2_1 A B VGND VNB VPB VPWR Y
.ends

* Black-box entry subcircuit for sky130_fd_sc_hd__dlygate4sd3_1 abstract view
.subckt sky130_fd_sc_hd__dlygate4sd3_1 A VGND VNB VPB VPWR X
.ends

* Black-box entry subcircuit for sky130_fd_sc_hd__a22oi_1 abstract view
.subckt sky130_fd_sc_hd__a22oi_1 A1 A2 B1 B2 VGND VNB VPB VPWR Y
.ends

* Black-box entry subcircuit for sky130_fd_sc_hd__nand3_1 abstract view
.subckt sky130_fd_sc_hd__nand3_1 A B C VGND VNB VPB VPWR Y
.ends

* Black-box entry subcircuit for sky130_fd_sc_hd__and2_1 abstract view
.subckt sky130_fd_sc_hd__and2_1 A B VGND VNB VPB VPWR X
.ends

* Black-box entry subcircuit for sky130_fd_sc_hd__buf_2 abstract view
.subckt sky130_fd_sc_hd__buf_2 A VGND VNB VPB VPWR X
.ends

* Black-box entry subcircuit for sky130_fd_sc_hd__xor2_1 abstract view
.subckt sky130_fd_sc_hd__xor2_1 A B VGND VNB VPB VPWR X
.ends

* Black-box entry subcircuit for sky130_fd_sc_hd__decap_4 abstract view
.subckt sky130_fd_sc_hd__decap_4 VGND VNB VPB VPWR
.ends

* Black-box entry subcircuit for sky130_fd_sc_hd__a21oi_1 abstract view
.subckt sky130_fd_sc_hd__a21oi_1 A1 A2 B1 VGND VNB VPB VPWR Y
.ends

* Black-box entry subcircuit for sky130_fd_sc_hd__nand2_1 abstract view
.subckt sky130_fd_sc_hd__nand2_1 A B VGND VNB VPB VPWR Y
.ends

* Black-box entry subcircuit for sky130_fd_sc_hd__or2_1 abstract view
.subckt sky130_fd_sc_hd__or2_1 A B VGND VNB VPB VPWR X
.ends

* Black-box entry subcircuit for sky130_fd_sc_hd__decap_6 abstract view
.subckt sky130_fd_sc_hd__decap_6 VGND VNB VPB VPWR
.ends

* Black-box entry subcircuit for sky130_fd_sc_hd__and2b_1 abstract view
.subckt sky130_fd_sc_hd__and2b_1 A_N B VGND VNB VPB VPWR X
.ends

* Black-box entry subcircuit for sky130_fd_sc_hd__and3b_1 abstract view
.subckt sky130_fd_sc_hd__and3b_1 A_N B C VGND VNB VPB VPWR X
.ends

* Black-box entry subcircuit for sky130_fd_sc_hd__o21a_1 abstract view
.subckt sky130_fd_sc_hd__o21a_1 A1 A2 B1 VGND VNB VPB VPWR X
.ends

* Black-box entry subcircuit for sky130_fd_sc_hd__or3_1 abstract view
.subckt sky130_fd_sc_hd__or3_1 A B C VGND VNB VPB VPWR X
.ends

* Black-box entry subcircuit for sky130_fd_sc_hd__clkbuf_4 abstract view
.subckt sky130_fd_sc_hd__clkbuf_4 A VGND VNB VPB VPWR X
.ends

* Black-box entry subcircuit for sky130_fd_sc_hd__o211a_1 abstract view
.subckt sky130_fd_sc_hd__o211a_1 A1 A2 B1 C1 VGND VNB VPB VPWR X
.ends

* Black-box entry subcircuit for sky130_fd_sc_hd__a22o_1 abstract view
.subckt sky130_fd_sc_hd__a22o_1 A1 A2 B1 B2 VGND VNB VPB VPWR X
.ends

* Black-box entry subcircuit for sky130_fd_sc_hd__o21bai_1 abstract view
.subckt sky130_fd_sc_hd__o21bai_1 A1 A2 B1_N VGND VNB VPB VPWR Y
.ends

* Black-box entry subcircuit for sky130_fd_sc_hd__o21ai_1 abstract view
.subckt sky130_fd_sc_hd__o21ai_1 A1 A2 B1 VGND VNB VPB VPWR Y
.ends

* Black-box entry subcircuit for sky130_fd_sc_hd__o21ba_1 abstract view
.subckt sky130_fd_sc_hd__o21ba_1 A1 A2 B1_N VGND VNB VPB VPWR X
.ends

* Black-box entry subcircuit for sky130_fd_sc_hd__a21bo_1 abstract view
.subckt sky130_fd_sc_hd__a21bo_1 A1 A2 B1_N VGND VNB VPB VPWR X
.ends

* Black-box entry subcircuit for sky130_fd_sc_hd__clkbuf_16 abstract view
.subckt sky130_fd_sc_hd__clkbuf_16 A VGND VNB VPB VPWR X
.ends

* Black-box entry subcircuit for sky130_fd_sc_hd__a21o_1 abstract view
.subckt sky130_fd_sc_hd__a21o_1 A1 A2 B1 VGND VNB VPB VPWR X
.ends

* Black-box entry subcircuit for sky130_fd_sc_hd__buf_4 abstract view
.subckt sky130_fd_sc_hd__buf_4 A VGND VNB VPB VPWR X
.ends

* Black-box entry subcircuit for sky130_fd_sc_hd__clkbuf_2 abstract view
.subckt sky130_fd_sc_hd__clkbuf_2 A VGND VNB VPB VPWR X
.ends

* Black-box entry subcircuit for sky130_fd_sc_hd__clkinv_4 abstract view
.subckt sky130_fd_sc_hd__clkinv_4 A VGND VNB VPB VPWR Y
.ends

* Black-box entry subcircuit for sky130_fd_sc_hd__o311a_1 abstract view
.subckt sky130_fd_sc_hd__o311a_1 A1 A2 A3 B1 C1 VGND VNB VPB VPWR X
.ends

* Black-box entry subcircuit for sky130_fd_sc_hd__clkinv_2 abstract view
.subckt sky130_fd_sc_hd__clkinv_2 A VGND VNB VPB VPWR Y
.ends

* Black-box entry subcircuit for sky130_fd_sc_hd__clkinvlp_4 abstract view
.subckt sky130_fd_sc_hd__clkinvlp_4 A VGND VNB VPB VPWR Y
.ends

* Black-box entry subcircuit for sky130_fd_sc_hd__a211o_1 abstract view
.subckt sky130_fd_sc_hd__a211o_1 A1 A2 B1 C1 VGND VNB VPB VPWR X
.ends

* Black-box entry subcircuit for sky130_fd_sc_hd__dfrtp_2 abstract view
.subckt sky130_fd_sc_hd__dfrtp_2 CLK D RESET_B VGND VNB VPB VPWR Q
.ends

* Black-box entry subcircuit for sky130_fd_sc_hd__bufinv_16 abstract view
.subckt sky130_fd_sc_hd__bufinv_16 A VGND VNB VPB VPWR Y
.ends

* Black-box entry subcircuit for sky130_fd_sc_hd__clkbuf_1 abstract view
.subckt sky130_fd_sc_hd__clkbuf_1 A VGND VNB VPB VPWR X
.ends

* Black-box entry subcircuit for sky130_fd_sc_hd__dfrtp_4 abstract view
.subckt sky130_fd_sc_hd__dfrtp_4 CLK D RESET_B VGND VNB VPB VPWR Q
.ends

* Black-box entry subcircuit for sky130_fd_sc_hd__nor3b_1 abstract view
.subckt sky130_fd_sc_hd__nor3b_1 A B C_N VGND VNB VPB VPWR Y
.ends

* Black-box entry subcircuit for sky130_fd_sc_hd__nor3_1 abstract view
.subckt sky130_fd_sc_hd__nor3_1 A B C VGND VNB VPB VPWR Y
.ends

* Black-box entry subcircuit for sky130_fd_sc_hd__or3b_1 abstract view
.subckt sky130_fd_sc_hd__or3b_1 A B C_N VGND VNB VPB VPWR X
.ends

.subckt mult VGND VPWR a[0] a[1] a[2] a[3] a[4] a[5] a[6] a[7] b[0] b[1] b[2] b[3]
+ b[4] b[5] b[6] b[7] clk product[0] product[10] product[11] product[12] product[13]
+ product[14] product[15] product[1] product[2] product[3] product[4] product[5] product[6]
+ product[7] product[8] product[9] rst
XFILLER_39_222 VGND VGND VPWR VPWR sky130_fd_sc_hd__fill_2
XFILLER_26_41 VPWR VGND VPWR VGND sky130_ef_sc_hd__decap_12
XFILLER_9_104 VGND VGND VPWR VPWR sky130_fd_sc_hd__decap_3
XFILLER_13_177 VGND VGND VPWR VPWR sky130_fd_sc_hd__fill_1
XFILLER_36_225 VGND VGND VPWR VPWR sky130_fd_sc_hd__decap_3
X_0985_ clknet_4_4_0_clk _0055_ _0204_ VGND VGND VPWR VPWR pp\[4\]\[3\] sky130_fd_sc_hd__dfrtp_1
XTAP_TAPCELL_ROW_20_186 VGND VPWR sky130_fd_sc_hd__tapvpwrvgnd_1
XFILLER_37_51 VGND VGND VPWR VPWR sky130_fd_sc_hd__fill_1
XFILLER_18_236 VPWR VGND VPWR VGND sky130_ef_sc_hd__decap_12
XTAP_TAPCELL_ROW_28_220 VGND VPWR sky130_fd_sc_hd__tapvpwrvgnd_1
XTAP_TAPCELL_ROW_43_289 VGND VPWR sky130_fd_sc_hd__tapvpwrvgnd_1
X_0770_ net51 VGND VGND VPWR VPWR _0149_ sky130_fd_sc_hd__inv_2
XFILLER_5_140 VGND VGND VPWR VPWR sky130_fd_sc_hd__decap_8
XTAP_TAPCELL_ROW_11_142 VGND VPWR sky130_fd_sc_hd__tapvpwrvgnd_1
XFILLER_24_217 VPWR VGND VPWR VGND sky130_ef_sc_hd__decap_12
X_0968_ clknet_4_1_0_clk _0041_ _0187_ VGND VGND VPWR VPWR pp\[0\]\[2\] sky130_fd_sc_hd__dfrtp_1
Xclkbuf_4_12_0_clk clknet_0_clk VGND VGND VPWR VPWR clknet_4_12_0_clk sky130_fd_sc_hd__clkbuf_8
XTAP_TAPCELL_ROW_34_245 VGND VPWR sky130_fd_sc_hd__tapvpwrvgnd_1
X_0899_ clknet_4_5_0_clk net79 _0118_ VGND VGND VPWR VPWR net29 sky130_fd_sc_hd__dfrtp_1
XFILLER_0_57 VGND VGND VPWR VPWR sky130_fd_sc_hd__fill_2
X_0822_ net43 VGND VGND VPWR VPWR _0201_ sky130_fd_sc_hd__inv_2
XFILLER_9_55 VGND VGND VPWR VPWR sky130_fd_sc_hd__fill_1
XFILLER_9_77 VGND VGND VPWR VPWR sky130_fd_sc_hd__fill_2
X_0684_ _0356_ _0360_ VGND VGND VPWR VPWR _0016_ sky130_fd_sc_hd__xnor2_1
X_0753_ net49 VGND VGND VPWR VPWR _0132_ sky130_fd_sc_hd__inv_2
XFILLER_20_253 VGND VGND VPWR VPWR sky130_fd_sc_hd__decap_8
XFILLER_34_85 VPWR VGND VPWR VGND sky130_ef_sc_hd__decap_12
X_1021_ clknet_4_11_0_clk _0102_ _0240_ VGND VGND VPWR VPWR pp\[13\]\[3\] sky130_fd_sc_hd__dfrtp_1
X_0805_ net53 VGND VGND VPWR VPWR _0184_ sky130_fd_sc_hd__inv_2
X_0667_ net38 net36 _0042_ VGND VGND VPWR VPWR _0043_ sky130_fd_sc_hd__and3_1
X_0736_ net49 VGND VGND VPWR VPWR _0115_ sky130_fd_sc_hd__inv_2
X_0598_ _0375_ _0376_ VGND VGND VPWR VPWR _0377_ sky130_fd_sc_hd__nor2_1
XFILLER_29_117 VGND VGND VPWR VPWR sky130_fd_sc_hd__fill_1
XFILLER_20_54 VPWR VGND VPWR VGND sky130_ef_sc_hd__decap_12
Xhold52 g1\[2\] VGND VGND VPWR VPWR net111 sky130_fd_sc_hd__dlygate4sd3_1
Xhold30 low_sum\[4\] VGND VGND VPWR VPWR net89 sky130_fd_sc_hd__dlygate4sd3_1
Xhold63 b1\[1\] VGND VGND VPWR VPWR net122 sky130_fd_sc_hd__dlygate4sd3_1
XFILLER_29_96 VGND VGND VPWR VPWR sky130_fd_sc_hd__fill_1
Xhold41 _0000_ VGND VGND VPWR VPWR net100 sky130_fd_sc_hd__dlygate4sd3_1
XFILLER_43_153 VPWR VGND VPWR VGND sky130_ef_sc_hd__decap_12
XFILLER_43_197 VPWR VGND VPWR VGND sky130_ef_sc_hd__decap_12
XFILLER_3_260 VGND VGND VPWR VPWR sky130_fd_sc_hd__fill_1
X_0452_ net38 b2\[0\] a0\[0\] net35 VGND VGND VPWR VPWR _0274_ sky130_fd_sc_hd__a22oi_1
X_0521_ pp\[12\]\[0\] _0309_ _0310_ VGND VGND VPWR VPWR _0312_ sky130_fd_sc_hd__nand3_1
X_1004_ clknet_4_3_0_clk _0037_ _0223_ VGND VGND VPWR VPWR pp\[9\]\[2\] sky130_fd_sc_hd__dfrtp_1
XFILLER_34_197 VGND VGND VPWR VPWR sky130_fd_sc_hd__fill_2
X_0719_ _0440_ _0441_ VGND VGND VPWR VPWR _0029_ sky130_fd_sc_hd__and2_1
XFILLER_15_32 VGND VGND VPWR VPWR sky130_fd_sc_hd__fill_1
XFILLER_40_112 VGND VGND VPWR VPWR sky130_fd_sc_hd__decap_8
XFILLER_15_65 VGND VGND VPWR VPWR sky130_fd_sc_hd__fill_2
Xoutput31 net31 VGND VGND VPWR VPWR product[7] sky130_fd_sc_hd__buf_2
Xoutput20 net20 VGND VGND VPWR VPWR product[11] sky130_fd_sc_hd__buf_2
XFILLER_16_153 VGND VGND VPWR VPWR sky130_fd_sc_hd__decap_8
XFILLER_31_167 VGND VGND VPWR VPWR sky130_fd_sc_hd__fill_1
X_0504_ pp\[13\]\[3\] _0298_ VGND VGND VPWR VPWR _0299_ sky130_fd_sc_hd__xor2_1
XTAP_TAPCELL_ROW_17_170 VGND VPWR sky130_fd_sc_hd__tapvpwrvgnd_1
XFILLER_13_167 VGND VGND VPWR VPWR sky130_fd_sc_hd__fill_1
XFILLER_26_53 VPWR VGND VPWR VGND sky130_ef_sc_hd__decap_12
XFILLER_42_85 VGND VGND VPWR VPWR sky130_fd_sc_hd__decap_8
XFILLER_42_41 VGND VGND VPWR VPWR sky130_fd_sc_hd__decap_8
X_0984_ clknet_4_1_0_clk _0057_ _0203_ VGND VGND VPWR VPWR pp\[4\]\[2\] sky130_fd_sc_hd__dfrtp_1
XTAP_TAPCELL_ROW_6_119 VGND VPWR sky130_fd_sc_hd__tapvpwrvgnd_1
XFILLER_18_248 VGND VGND VPWR VPWR sky130_fd_sc_hd__decap_4
XTAP_TAPCELL_ROW_28_221 VGND VPWR sky130_fd_sc_hd__tapvpwrvgnd_1
XTAP_TAPCELL_ROW_11_143 VGND VPWR sky130_fd_sc_hd__tapvpwrvgnd_1
XFILLER_24_229 VGND VGND VPWR VPWR sky130_fd_sc_hd__decap_3
XTAP_TAPCELL_ROW_34_246 VGND VPWR sky130_fd_sc_hd__tapvpwrvgnd_1
X_0967_ clknet_4_0_0_clk _0040_ _0186_ VGND VGND VPWR VPWR pp\[0\]\[1\] sky130_fd_sc_hd__dfrtp_1
X_0898_ clknet_4_5_0_clk net80 _0117_ VGND VGND VPWR VPWR net28 sky130_fd_sc_hd__dfrtp_1
XPHY_EDGE_ROW_12_Right_12 VGND VGND VPWR VPWR sky130_fd_sc_hd__decap_3
XPHY_EDGE_ROW_21_Right_21 VGND VGND VPWR VPWR sky130_fd_sc_hd__decap_3
XFILLER_23_21 VGND VGND VPWR VPWR sky130_fd_sc_hd__fill_1
XPHY_EDGE_ROW_30_Right_30 VGND VGND VPWR VPWR sky130_fd_sc_hd__decap_3
X_0752_ net49 VGND VGND VPWR VPWR _0131_ sky130_fd_sc_hd__inv_2
XFILLER_14_251 VGND VGND VPWR VPWR sky130_fd_sc_hd__fill_1
X_0821_ net45 VGND VGND VPWR VPWR _0200_ sky130_fd_sc_hd__inv_2
XFILLER_43_3 VPWR VGND VPWR VGND sky130_ef_sc_hd__decap_12
X_0683_ _0359_ _0418_ VGND VGND VPWR VPWR _0015_ sky130_fd_sc_hd__nor2_1
XTAP_TAPCELL_ROW_0_90 VGND VPWR sky130_fd_sc_hd__tapvpwrvgnd_1
XFILLER_20_221 VPWR VGND VPWR VGND sky130_ef_sc_hd__decap_12
XFILLER_34_97 VPWR VGND VPWR VGND sky130_ef_sc_hd__decap_12
XFILLER_38_118 VPWR VGND VPWR VGND sky130_ef_sc_hd__decap_12
Xclkbuf_4_11_0_clk clknet_0_clk VGND VGND VPWR VPWR clknet_4_11_0_clk sky130_fd_sc_hd__clkbuf_8
X_1020_ clknet_4_9_0_clk _0104_ _0239_ VGND VGND VPWR VPWR pp\[13\]\[2\] sky130_fd_sc_hd__dfrtp_1
X_0804_ net53 VGND VGND VPWR VPWR _0183_ sky130_fd_sc_hd__inv_2
X_0735_ net39 VGND VGND VPWR VPWR _0114_ sky130_fd_sc_hd__inv_2
X_0666_ _0417_ VGND VGND VPWR VPWR _0042_ sky130_fd_sc_hd__inv_2
X_0597_ pp\[8\]\[1\] _0369_ _0368_ VGND VGND VPWR VPWR _0376_ sky130_fd_sc_hd__a21oi_1
XFILLER_20_66 VGND VGND VPWR VPWR sky130_fd_sc_hd__decap_8
Xhold42 g5\[4\] VGND VGND VPWR VPWR net101 sky130_fd_sc_hd__dlygate4sd3_1
Xhold20 final_sum\[5\] VGND VGND VPWR VPWR net79 sky130_fd_sc_hd__dlygate4sd3_1
Xhold53 _0007_ VGND VGND VPWR VPWR net112 sky130_fd_sc_hd__dlygate4sd3_1
Xhold64 b2\[1\] VGND VGND VPWR VPWR net123 sky130_fd_sc_hd__dlygate4sd3_1
Xhold31 g3\[5\] VGND VGND VPWR VPWR net90 sky130_fd_sc_hd__dlygate4sd3_1
XFILLER_43_165 VGND VGND VPWR VPWR sky130_fd_sc_hd__decap_3
X_0451_ net35 net38 _0046_ VGND VGND VPWR VPWR _0047_ sky130_fd_sc_hd__and3_1
X_0520_ _0309_ _0310_ VGND VGND VPWR VPWR _0311_ sky130_fd_sc_hd__nand2_1
XFILLER_19_140 VGND VGND VPWR VPWR sky130_fd_sc_hd__decap_3
XFILLER_19_151 VPWR VGND VPWR VGND sky130_ef_sc_hd__decap_12
X_1003_ clknet_4_3_0_clk _0036_ _0222_ VGND VGND VPWR VPWR pp\[9\]\[1\] sky130_fd_sc_hd__dfrtp_1
XFILLER_34_121 VGND VGND VPWR VPWR sky130_fd_sc_hd__fill_1
XFILLER_34_132 VGND VGND VPWR VPWR sky130_fd_sc_hd__decap_8
X_0718_ high_sum\[14\] _0439_ VGND VGND VPWR VPWR _0441_ sky130_fd_sc_hd__or2_1
XPHY_EDGE_ROW_6_Right_6 VGND VGND VPWR VPWR sky130_fd_sc_hd__decap_3
X_0649_ b0\[0\] a2\[0\] VGND VGND VPWR VPWR _0411_ sky130_fd_sc_hd__nand2_1
XFILLER_15_22 VGND VGND VPWR VPWR sky130_fd_sc_hd__fill_1
XFILLER_15_55 VGND VGND VPWR VPWR sky130_fd_sc_hd__fill_1
XFILLER_31_54 VGND VGND VPWR VPWR sky130_fd_sc_hd__fill_2
Xoutput21 net21 VGND VGND VPWR VPWR product[12] sky130_fd_sc_hd__buf_2
XFILLER_0_253 VGND VGND VPWR VPWR sky130_fd_sc_hd__decap_8
Xoutput32 net32 VGND VGND VPWR VPWR product[8] sky130_fd_sc_hd__buf_2
XFILLER_31_113 VGND VGND VPWR VPWR sky130_fd_sc_hd__fill_2
X_0503_ _0296_ _0297_ VGND VGND VPWR VPWR _0298_ sky130_fd_sc_hd__nand2_1
XTAP_TAPCELL_ROW_17_171 VGND VPWR sky130_fd_sc_hd__tapvpwrvgnd_1
XFILLER_26_65 VGND VGND VPWR VPWR sky130_fd_sc_hd__decap_6
XTAP_TAPCELL_ROW_23_196 VGND VPWR sky130_fd_sc_hd__tapvpwrvgnd_1
X_0983_ clknet_4_1_0_clk _0056_ _0202_ VGND VGND VPWR VPWR pp\[4\]\[1\] sky130_fd_sc_hd__dfrtp_1
XPHY_EDGE_ROW_19_Left_63 VGND VGND VPWR VPWR sky130_fd_sc_hd__decap_3
XFILLER_10_138 VGND VGND VPWR VPWR sky130_fd_sc_hd__fill_2
XFILLER_37_64 VGND VGND VPWR VPWR sky130_fd_sc_hd__decap_4
XTAP_TAPCELL_ROW_28_222 VGND VPWR sky130_fd_sc_hd__tapvpwrvgnd_1
XTAP_TAPCELL_ROW_11_144 VGND VPWR sky130_fd_sc_hd__tapvpwrvgnd_1
XFILLER_5_175 VGND VGND VPWR VPWR sky130_fd_sc_hd__fill_1
XTAP_TAPCELL_ROW_34_247 VGND VPWR sky130_fd_sc_hd__tapvpwrvgnd_1
X_0966_ clknet_4_0_0_clk _0038_ _0185_ VGND VGND VPWR VPWR pp\[0\]\[0\] sky130_fd_sc_hd__dfrtp_1
X_0897_ clknet_4_5_0_clk net74 _0116_ VGND VGND VPWR VPWR net27 sky130_fd_sc_hd__dfrtp_1
XTAP_TAPCELL_ROW_2_101 VGND VPWR sky130_fd_sc_hd__tapvpwrvgnd_1
XPHY_EDGE_ROW_4_Left_48 VGND VGND VPWR VPWR sky130_fd_sc_hd__decap_3
XFILLER_3_3 VPWR VGND VPWR VGND sky130_ef_sc_hd__decap_12
XFILLER_0_15 VPWR VGND VPWR VGND sky130_ef_sc_hd__decap_12
X_0751_ net39 VGND VGND VPWR VPWR _0130_ sky130_fd_sc_hd__inv_2
XFILLER_9_57 VPWR VGND VPWR VGND sky130_ef_sc_hd__decap_12
X_0820_ net42 VGND VGND VPWR VPWR _0199_ sky130_fd_sc_hd__inv_2
XFILLER_36_3 VPWR VGND VPWR VGND sky130_ef_sc_hd__decap_12
X_0682_ _0357_ _0358_ VGND VGND VPWR VPWR _0418_ sky130_fd_sc_hd__and2b_1
XTAP_TAPCELL_ROW_0_91 VGND VPWR sky130_fd_sc_hd__tapvpwrvgnd_1
XFILLER_20_233 VPWR VGND VPWR VGND sky130_ef_sc_hd__decap_12
X_0949_ clknet_4_6_0_clk _0032_ _0168_ VGND VGND VPWR VPWR g3\[0\] sky130_fd_sc_hd__dfrtp_1
XFILLER_11_200 VGND VGND VPWR VPWR sky130_fd_sc_hd__fill_1
X_0803_ net53 VGND VGND VPWR VPWR _0182_ sky130_fd_sc_hd__inv_2
X_0665_ a0\[0\] b1\[0\] VGND VGND VPWR VPWR _0417_ sky130_fd_sc_hd__nand2_1
X_0734_ _0043_ _0446_ VGND VGND VPWR VPWR _0044_ sky130_fd_sc_hd__nor2_1
X_0596_ pp\[8\]\[2\] _0374_ VGND VGND VPWR VPWR _0375_ sky130_fd_sc_hd__xnor2_1
XFILLER_20_23 VGND VGND VPWR VPWR sky130_fd_sc_hd__fill_2
Xhold43 _0004_ VGND VGND VPWR VPWR net102 sky130_fd_sc_hd__dlygate4sd3_1
Xhold65 pp\[4\]\[3\] VGND VGND VPWR VPWR net124 sky130_fd_sc_hd__dlygate4sd3_1
Xhold21 final_sum\[4\] VGND VGND VPWR VPWR net80 sky130_fd_sc_hd__dlygate4sd3_1
Xhold54 g1\[1\] VGND VGND VPWR VPWR net113 sky130_fd_sc_hd__dlygate4sd3_1
Xhold10 low_sum\[6\] VGND VGND VPWR VPWR net69 sky130_fd_sc_hd__dlygate4sd3_1
Xhold32 g3\[2\] VGND VGND VPWR VPWR net91 sky130_fd_sc_hd__dlygate4sd3_1
XFILLER_28_141 VPWR VGND VPWR VGND sky130_ef_sc_hd__decap_12
XPHY_EDGE_ROW_7_Left_51 VGND VGND VPWR VPWR sky130_fd_sc_hd__decap_3
XFILLER_6_69 VGND VGND VPWR VPWR sky130_fd_sc_hd__fill_2
XFILLER_6_14 VGND VGND VPWR VPWR sky130_fd_sc_hd__fill_1
X_0450_ _0046_ net38 net35 VGND VGND VPWR VPWR _0049_ sky130_fd_sc_hd__and3b_1
XFILLER_19_163 VGND VGND VPWR VPWR sky130_fd_sc_hd__decap_4
X_1002_ clknet_4_3_0_clk _0034_ _0221_ VGND VGND VPWR VPWR pp\[9\]\[0\] sky130_fd_sc_hd__dfrtp_1
X_0717_ high_sum\[14\] _0439_ VGND VGND VPWR VPWR _0440_ sky130_fd_sc_hd__nand2_1
X_0648_ _0105_ _0409_ VGND VGND VPWR VPWR _0108_ sky130_fd_sc_hd__nor2_1
X_0579_ net35 a3\[1\] VGND VGND VPWR VPWR _0363_ sky130_fd_sc_hd__nand2_1
XFILLER_15_12 VGND VGND VPWR VPWR sky130_fd_sc_hd__fill_1
XFILLER_15_78 VGND VGND VPWR VPWR sky130_fd_sc_hd__decap_8
XFILLER_25_111 VGND VGND VPWR VPWR sky130_fd_sc_hd__fill_1
Xclkbuf_4_10_0_clk clknet_0_clk VGND VGND VPWR VPWR clknet_4_10_0_clk sky130_fd_sc_hd__clkbuf_8
XPHY_EDGE_ROW_33_Left_77 VGND VGND VPWR VPWR sky130_fd_sc_hd__decap_3
Xoutput22 net22 VGND VGND VPWR VPWR product[13] sky130_fd_sc_hd__buf_2
Xoutput33 net33 VGND VGND VPWR VPWR product[9] sky130_fd_sc_hd__buf_2
XFILLER_31_125 VGND VGND VPWR VPWR sky130_fd_sc_hd__fill_2
XFILLER_31_169 VGND VGND VPWR VPWR sky130_fd_sc_hd__decap_3
X_0502_ pp\[10\]\[3\] pp\[7\]\[3\] VGND VGND VPWR VPWR _0297_ sky130_fd_sc_hd__or2_1
XFILLER_39_225 VPWR VGND VPWR VGND sky130_ef_sc_hd__decap_12
XTAP_TAPCELL_ROW_17_172 VGND VPWR sky130_fd_sc_hd__tapvpwrvgnd_1
XFILLER_13_125 VGND VGND VPWR VPWR sky130_fd_sc_hd__fill_2
XFILLER_13_169 VGND VGND VPWR VPWR sky130_fd_sc_hd__decap_8
XTAP_TAPCELL_ROW_23_197 VGND VPWR sky130_fd_sc_hd__tapvpwrvgnd_1
XFILLER_36_217 VGND VGND VPWR VPWR sky130_fd_sc_hd__decap_8
XFILLER_3_15 VGND VGND VPWR VPWR sky130_fd_sc_hd__fill_1
X_0982_ clknet_4_1_0_clk _0054_ _0201_ VGND VGND VPWR VPWR pp\[4\]\[0\] sky130_fd_sc_hd__dfrtp_1
XFILLER_42_209 VGND VGND VPWR VPWR sky130_fd_sc_hd__decap_4
XFILLER_12_24 VGND VGND VPWR VPWR sky130_fd_sc_hd__decap_4
XFILLER_12_46 VGND VGND VPWR VPWR sky130_fd_sc_hd__decap_6
XFILLER_5_110 VGND VGND VPWR VPWR sky130_fd_sc_hd__fill_2
XTAP_TAPCELL_ROW_11_145 VGND VPWR sky130_fd_sc_hd__tapvpwrvgnd_1
XPHY_EDGE_ROW_36_Left_80 VGND VGND VPWR VPWR sky130_fd_sc_hd__decap_3
XFILLER_5_132 VGND VGND VPWR VPWR sky130_fd_sc_hd__fill_1
XPHY_EDGE_ROW_20_Left_64 VGND VGND VPWR VPWR sky130_fd_sc_hd__decap_3
XTAP_TAPCELL_ROW_42_281 VGND VPWR sky130_fd_sc_hd__tapvpwrvgnd_1
XFILLER_32_253 VGND VGND VPWR VPWR sky130_fd_sc_hd__decap_4
XTAP_TAPCELL_ROW_34_248 VGND VPWR sky130_fd_sc_hd__tapvpwrvgnd_1
X_0965_ clknet_4_11_0_clk _0018_ _0184_ VGND VGND VPWR VPWR g5\[4\] sky130_fd_sc_hd__dfrtp_1
X_0896_ clknet_4_5_0_clk net66 _0115_ VGND VGND VPWR VPWR net26 sky130_fd_sc_hd__dfrtp_1
XTAP_TAPCELL_ROW_2_102 VGND VPWR sky130_fd_sc_hd__tapvpwrvgnd_1
XFILLER_23_220 VGND VGND VPWR VPWR sky130_fd_sc_hd__decap_4
XFILLER_0_27 VGND VGND VPWR VPWR sky130_fd_sc_hd__fill_1
XFILLER_9_69 VGND VGND VPWR VPWR sky130_fd_sc_hd__decap_8
XFILLER_14_253 VGND VGND VPWR VPWR sky130_fd_sc_hd__decap_8
X_0681_ pp\[15\]\[2\] net101 VGND VGND VPWR VPWR _0004_ sky130_fd_sc_hd__or2_1
X_0750_ net39 VGND VGND VPWR VPWR _0129_ sky130_fd_sc_hd__inv_2
XTAP_TAPCELL_ROW_0_92 VGND VPWR sky130_fd_sc_hd__tapvpwrvgnd_1
X_0948_ clknet_4_6_0_clk _0088_ _0167_ VGND VGND VPWR VPWR g2\[5\] sky130_fd_sc_hd__dfrtp_1
XFILLER_20_245 VGND VGND VPWR VPWR sky130_fd_sc_hd__decap_6
X_0879_ net39 VGND VGND VPWR VPWR _0258_ sky130_fd_sc_hd__inv_2
XFILLER_34_44 VGND VGND VPWR VPWR sky130_fd_sc_hd__fill_1
XFILLER_34_55 VPWR VGND VPWR VGND sky130_ef_sc_hd__decap_12
XFILLER_11_256 VGND VGND VPWR VPWR sky130_fd_sc_hd__fill_1
X_0802_ net54 VGND VGND VPWR VPWR _0181_ sky130_fd_sc_hd__inv_2
X_0733_ a0\[0\] net36 b1\[0\] net38 VGND VGND VPWR VPWR _0446_ sky130_fd_sc_hd__a22oi_1
X_0664_ net38 b0\[1\] _0038_ VGND VGND VPWR VPWR _0039_ sky130_fd_sc_hd__and3_1
XFILLER_37_142 VGND VGND VPWR VPWR sky130_fd_sc_hd__fill_1
X_0595_ pp\[5\]\[2\] pp\[2\]\[2\] VGND VGND VPWR VPWR _0374_ sky130_fd_sc_hd__xor2_1
Xhold11 low_sum\[5\] VGND VGND VPWR VPWR net70 sky130_fd_sc_hd__dlygate4sd3_1
Xhold22 final_sum\[10\] VGND VGND VPWR VPWR net81 sky130_fd_sc_hd__dlygate4sd3_1
Xhold44 g4\[3\] VGND VGND VPWR VPWR net103 sky130_fd_sc_hd__dlygate4sd3_1
Xhold66 _0352_ VGND VGND VPWR VPWR net125 sky130_fd_sc_hd__dlygate4sd3_1
Xhold55 _0006_ VGND VGND VPWR VPWR net114 sky130_fd_sc_hd__dlygate4sd3_1
Xhold33 _0011_ VGND VGND VPWR VPWR net92 sky130_fd_sc_hd__dlygate4sd3_1
XFILLER_28_153 VGND VGND VPWR VPWR sky130_fd_sc_hd__decap_3
XFILLER_6_48 VGND VGND VPWR VPWR sky130_fd_sc_hd__fill_1
XFILLER_6_26 VGND VGND VPWR VPWR sky130_fd_sc_hd__fill_2
X_1001_ clknet_4_6_0_clk _0110_ _0220_ VGND VGND VPWR VPWR pp\[8\]\[3\] sky130_fd_sc_hd__dfrtp_1
X_0578_ _0362_ VGND VGND VPWR VPWR _0084_ sky130_fd_sc_hd__inv_2
X_0716_ net119 _0437_ VGND VGND VPWR VPWR _0028_ sky130_fd_sc_hd__xnor2_1
X_0647_ _0408_ _0409_ _0410_ VGND VGND VPWR VPWR _0107_ sky130_fd_sc_hd__o21a_1
XFILLER_15_57 VGND VGND VPWR VPWR sky130_fd_sc_hd__decap_8
XFILLER_25_167 VGND VGND VPWR VPWR sky130_fd_sc_hd__fill_1
XFILLER_25_189 VGND VGND VPWR VPWR sky130_fd_sc_hd__fill_2
Xoutput23 net23 VGND VGND VPWR VPWR product[14] sky130_fd_sc_hd__buf_2
X_0501_ pp\[10\]\[3\] pp\[7\]\[3\] VGND VGND VPWR VPWR _0296_ sky130_fd_sc_hd__nand2_1
XFILLER_39_237 VGND VGND VPWR VPWR sky130_fd_sc_hd__decap_4
XFILLER_22_148 VGND VGND VPWR VPWR sky130_fd_sc_hd__fill_1
XFILLER_26_12 VGND VGND VPWR VPWR sky130_fd_sc_hd__fill_1
XFILLER_26_78 VGND VGND VPWR VPWR sky130_fd_sc_hd__decap_6
XFILLER_21_181 VGND VGND VPWR VPWR sky130_fd_sc_hd__decap_6
XTAP_TAPCELL_ROW_23_198 VGND VPWR sky130_fd_sc_hd__tapvpwrvgnd_1
XTAP_TAPCELL_ROW_8_130 VGND VPWR sky130_fd_sc_hd__tapvpwrvgnd_1
X_0981_ clknet_4_8_0_clk _0051_ _0200_ VGND VGND VPWR VPWR pp\[3\]\[3\] sky130_fd_sc_hd__dfrtp_1
XFILLER_8_141 VGND VGND VPWR VPWR sky130_fd_sc_hd__decap_4
XFILLER_37_55 VGND VGND VPWR VPWR sky130_fd_sc_hd__fill_1
XFILLER_26_251 VGND VGND VPWR VPWR sky130_fd_sc_hd__fill_1
XTAP_TAPCELL_ROW_42_282 VGND VPWR sky130_fd_sc_hd__tapvpwrvgnd_1
X_0964_ clknet_4_14_0_clk _0022_ _0183_ VGND VGND VPWR VPWR g5\[3\] sky130_fd_sc_hd__dfrtp_1
XTAP_TAPCELL_ROW_34_249 VGND VPWR sky130_fd_sc_hd__tapvpwrvgnd_1
X_0895_ clknet_4_0_0_clk net71 _0114_ VGND VGND VPWR VPWR net25 sky130_fd_sc_hd__dfrtp_1
XTAP_TAPCELL_ROW_2_103 VGND VPWR sky130_fd_sc_hd__tapvpwrvgnd_1
XFILLER_23_254 VGND VGND VPWR VPWR sky130_fd_sc_hd__decap_3
XTAP_TAPCELL_ROW_25_205 VGND VPWR sky130_fd_sc_hd__tapvpwrvgnd_1
XFILLER_23_57 VGND VGND VPWR VPWR sky130_fd_sc_hd__fill_2
XFILLER_14_221 VPWR VGND VPWR VGND sky130_ef_sc_hd__decap_12
X_0680_ g5\[3\] g4\[5\] net107 VGND VGND VPWR VPWR _0003_ sky130_fd_sc_hd__or3_1
XTAP_TAPCELL_ROW_0_93 VGND VPWR sky130_fd_sc_hd__tapvpwrvgnd_1
X_0947_ clknet_4_7_0_clk _0092_ _0166_ VGND VGND VPWR VPWR g2\[4\] sky130_fd_sc_hd__dfrtp_1
XTAP_TAPCELL_ROW_30_230 VGND VPWR sky130_fd_sc_hd__tapvpwrvgnd_1
X_0878_ net41 VGND VGND VPWR VPWR _0257_ sky130_fd_sc_hd__inv_2
XFILLER_34_67 VGND VGND VPWR VPWR sky130_fd_sc_hd__fill_2
Xclkload0 clknet_4_0_0_clk VGND VGND VPWR VPWR clkload0/X sky130_fd_sc_hd__clkbuf_4
X_0801_ net54 VGND VGND VPWR VPWR _0180_ sky130_fd_sc_hd__inv_2
XFILLER_41_3 VPWR VGND VPWR VGND sky130_ef_sc_hd__decap_12
X_0732_ net38 net36 _0417_ VGND VGND VPWR VPWR _0045_ sky130_fd_sc_hd__and3_1
X_0663_ _0416_ VGND VGND VPWR VPWR _0038_ sky130_fd_sc_hd__inv_2
X_0594_ pp\[5\]\[2\] pp\[2\]\[2\] VGND VGND VPWR VPWR _0373_ sky130_fd_sc_hd__and2_1
XFILLER_37_110 VGND VGND VPWR VPWR sky130_fd_sc_hd__fill_2
XFILLER_4_209 VPWR VGND VPWR VGND sky130_ef_sc_hd__decap_12
Xhold45 _0001_ VGND VGND VPWR VPWR net104 sky130_fd_sc_hd__dlygate4sd3_1
Xhold56 g1\[0\] VGND VGND VPWR VPWR net115 sky130_fd_sc_hd__dlygate4sd3_1
Xhold12 final_sum\[1\] VGND VGND VPWR VPWR net71 sky130_fd_sc_hd__dlygate4sd3_1
Xhold34 g3\[3\] VGND VGND VPWR VPWR net93 sky130_fd_sc_hd__dlygate4sd3_1
Xhold23 final_sum\[8\] VGND VGND VPWR VPWR net82 sky130_fd_sc_hd__dlygate4sd3_1
XFILLER_43_113 VPWR VGND VPWR VGND sky130_ef_sc_hd__decap_12
Xhold67 a0\[1\] VGND VGND VPWR VPWR net126 sky130_fd_sc_hd__dlygate4sd3_1
X_1000_ clknet_4_6_0_clk _0112_ _0219_ VGND VGND VPWR VPWR pp\[8\]\[2\] sky130_fd_sc_hd__dfrtp_1
X_0715_ _0432_ _0436_ high_sum\[12\] high_sum\[13\] VGND VGND VPWR VPWR _0439_ sky130_fd_sc_hd__o211a_1
X_0577_ b2\[0\] a3\[0\] VGND VGND VPWR VPWR _0362_ sky130_fd_sc_hd__nand2_1
X_0646_ b0\[0\] a3\[1\] a3\[0\] b0\[1\] VGND VGND VPWR VPWR _0410_ sky130_fd_sc_hd__a22o_1
XFILLER_25_113 VGND VGND VPWR VPWR sky130_fd_sc_hd__fill_1
Xoutput24 net24 VGND VGND VPWR VPWR product[15] sky130_fd_sc_hd__buf_2
XFILLER_0_223 VGND VGND VPWR VPWR sky130_fd_sc_hd__fill_1
XPHY_EDGE_ROW_19_Right_19 VGND VGND VPWR VPWR sky130_fd_sc_hd__decap_3
XPHY_EDGE_ROW_28_Right_28 VGND VGND VPWR VPWR sky130_fd_sc_hd__decap_3
X_0500_ _0291_ _0294_ VGND VGND VPWR VPWR _0076_ sky130_fd_sc_hd__xnor2_1
XPHY_EDGE_ROW_37_Right_37 VGND VGND VPWR VPWR sky130_fd_sc_hd__decap_3
X_0629_ pp\[11\]\[1\] pp\[14\]\[1\] VGND VGND VPWR VPWR _0400_ sky130_fd_sc_hd__xor2_1
XTAP_TAPCELL_ROW_23_199 VGND VPWR sky130_fd_sc_hd__tapvpwrvgnd_1
XTAP_TAPCELL_ROW_8_131 VGND VPWR sky130_fd_sc_hd__tapvpwrvgnd_1
XFILLER_29_260 VGND VGND VPWR VPWR sky130_fd_sc_hd__fill_1
XTAP_TAPCELL_ROW_14_155 VGND VPWR sky130_fd_sc_hd__tapvpwrvgnd_1
X_0980_ clknet_4_3_0_clk _0053_ _0199_ VGND VGND VPWR VPWR pp\[3\]\[2\] sky130_fd_sc_hd__dfrtp_1
XFILLER_8_197 VGND VGND VPWR VPWR sky130_fd_sc_hd__fill_1
XFILLER_17_241 VGND VGND VPWR VPWR sky130_fd_sc_hd__fill_2
XTAP_TAPCELL_ROW_42_283 VGND VPWR sky130_fd_sc_hd__tapvpwrvgnd_1
X_0963_ clknet_4_11_0_clk _0021_ _0182_ VGND VGND VPWR VPWR g5\[2\] sky130_fd_sc_hd__dfrtp_1
X_0894_ clknet_4_1_0_clk net85 _0113_ VGND VGND VPWR VPWR net18 sky130_fd_sc_hd__dfrtp_1
XTAP_TAPCELL_ROW_2_104 VGND VPWR sky130_fd_sc_hd__tapvpwrvgnd_1
XTAP_TAPCELL_ROW_25_206 VGND VPWR sky130_fd_sc_hd__tapvpwrvgnd_1
XFILLER_0_29 VPWR VGND VPWR VGND sky130_ef_sc_hd__decap_12
XFILLER_9_49 VGND VGND VPWR VPWR sky130_fd_sc_hd__decap_6
XFILLER_14_233 VPWR VGND VPWR VGND sky130_ef_sc_hd__decap_12
XTAP_TAPCELL_ROW_0_94 VGND VPWR sky130_fd_sc_hd__tapvpwrvgnd_1
X_0877_ net54 VGND VGND VPWR VPWR _0256_ sky130_fd_sc_hd__inv_2
X_0946_ clknet_4_6_0_clk _0091_ _0165_ VGND VGND VPWR VPWR g2\[3\] sky130_fd_sc_hd__dfrtp_1
XTAP_TAPCELL_ROW_30_231 VGND VPWR sky130_fd_sc_hd__tapvpwrvgnd_1
Xclkload1 clknet_4_1_0_clk VGND VGND VPWR VPWR clkload1/X sky130_fd_sc_hd__clkbuf_8
XFILLER_1_3 VPWR VGND VPWR VGND sky130_ef_sc_hd__decap_12
X_0800_ net53 VGND VGND VPWR VPWR _0179_ sky130_fd_sc_hd__inv_2
X_0731_ _0039_ _0445_ VGND VGND VPWR VPWR _0040_ sky130_fd_sc_hd__nor2_1
X_0662_ a0\[0\] b0\[0\] VGND VGND VPWR VPWR _0416_ sky130_fd_sc_hd__nand2_1
X_0593_ _0370_ _0371_ VGND VGND VPWR VPWR _0089_ sky130_fd_sc_hd__xnor2_1
XFILLER_37_177 VGND VGND VPWR VPWR sky130_fd_sc_hd__fill_2
X_0929_ clknet_4_4_0_clk net114 _0148_ VGND VGND VPWR VPWR low_sum\[3\] sky130_fd_sc_hd__dfrtp_1
XFILLER_20_15 VGND VGND VPWR VPWR sky130_fd_sc_hd__decap_8
Xhold68 pp\[11\]\[3\] VGND VGND VPWR VPWR net127 sky130_fd_sc_hd__dlygate4sd3_1
Xhold46 pp\[15\]\[0\] VGND VGND VPWR VPWR net105 sky130_fd_sc_hd__dlygate4sd3_1
Xhold13 pp\[0\]\[0\] VGND VGND VPWR VPWR net72 sky130_fd_sc_hd__dlygate4sd3_1
Xhold57 _0005_ VGND VGND VPWR VPWR net116 sky130_fd_sc_hd__dlygate4sd3_1
Xhold35 _0012_ VGND VGND VPWR VPWR net94 sky130_fd_sc_hd__dlygate4sd3_1
Xhold24 final_sum\[11\] VGND VGND VPWR VPWR net83 sky130_fd_sc_hd__dlygate4sd3_1
XFILLER_43_169 VPWR VGND VPWR VGND sky130_ef_sc_hd__decap_12
XFILLER_43_125 VPWR VGND VPWR VGND sky130_ef_sc_hd__decap_12
X_0714_ _0437_ _0438_ VGND VGND VPWR VPWR _0027_ sky130_fd_sc_hd__and2_1
X_0645_ _0408_ _0409_ VGND VGND VPWR VPWR _0106_ sky130_fd_sc_hd__nor2_1
X_0576_ net125 _0361_ _0351_ VGND VGND VPWR VPWR _0013_ sky130_fd_sc_hd__o21bai_1
XFILLER_15_26 VGND VGND VPWR VPWR sky130_fd_sc_hd__decap_6
XFILLER_25_169 VPWR VGND VPWR VGND sky130_ef_sc_hd__decap_12
Xoutput25 net25 VGND VGND VPWR VPWR product[1] sky130_fd_sc_hd__buf_2
XFILLER_30_194 VGND VGND VPWR VPWR sky130_fd_sc_hd__fill_2
X_0628_ _0397_ _0398_ VGND VGND VPWR VPWR _0399_ sky130_fd_sc_hd__nor2_1
XFILLER_7_82 VGND VGND VPWR VPWR sky130_fd_sc_hd__fill_2
X_0559_ _0335_ _0337_ _0345_ VGND VGND VPWR VPWR _0347_ sky130_fd_sc_hd__o21ai_1
XFILLER_13_106 VGND VGND VPWR VPWR sky130_fd_sc_hd__decap_6
XFILLER_13_117 VGND VGND VPWR VPWR sky130_fd_sc_hd__decap_8