* NGSPICE file created from mult.ext - technology: sky130A

* Black-box entry subcircuit for sky130_fd_sc_hd__decap_6 abstract view
.subckt sky130_fd_sc_hd__decap_6 VGND VNB VPB VPWR
.ends

* Black-box entry subcircuit for sky130_fd_sc_hd__and3_1 abstract view
.subckt sky130_fd_sc_hd__and3_1 A B C VGND VNB VPB VPWR X
.ends

* Black-box entry subcircuit for sky130_fd_sc_hd__decap_3 abstract view
.subckt sky130_fd_sc_hd__decap_3 VGND VNB VPB VPWR
.ends

* Black-box entry subcircuit for sky130_ef_sc_hd__decap_12 abstract view
.subckt sky130_ef_sc_hd__decap_12 VPWR VGND VPB VNB
.ends

* Black-box entry subcircuit for sky130_fd_sc_hd__a31oi_1 abstract view
.subckt sky130_fd_sc_hd__a31oi_1 A1 A2 A3 B1 VGND VNB VPB VPWR Y
.ends

* Black-box entry subcircuit for sky130_fd_sc_hd__tapvpwrvgnd_1 abstract view
.subckt sky130_fd_sc_hd__tapvpwrvgnd_1 VGND VPWR
.ends

* Black-box entry subcircuit for sky130_fd_sc_hd__fill_1 abstract view
.subckt sky130_fd_sc_hd__fill_1 VGND VNB VPB VPWR
.ends

* Black-box entry subcircuit for sky130_fd_sc_hd__decap_8 abstract view
.subckt sky130_fd_sc_hd__decap_8 VGND VNB VPB VPWR
.ends

* Black-box entry subcircuit for sky130_fd_sc_hd__nor3_1 abstract view
.subckt sky130_fd_sc_hd__nor3_1 A B C VGND VNB VPB VPWR Y
.ends

* Black-box entry subcircuit for sky130_fd_sc_hd__decap_4 abstract view
.subckt sky130_fd_sc_hd__decap_4 VGND VNB VPB VPWR
.ends

* Black-box entry subcircuit for sky130_fd_sc_hd__a21oi_1 abstract view
.subckt sky130_fd_sc_hd__a21oi_1 A1 A2 B1 VGND VNB VPB VPWR Y
.ends

* Black-box entry subcircuit for sky130_fd_sc_hd__dfrtp_1 abstract view
.subckt sky130_fd_sc_hd__dfrtp_1 CLK D RESET_B VGND VNB VPB VPWR Q
.ends

* Black-box entry subcircuit for sky130_fd_sc_hd__fill_2 abstract view
.subckt sky130_fd_sc_hd__fill_2 VGND VNB VPB VPWR
.ends

* Black-box entry subcircuit for sky130_fd_sc_hd__inv_2 abstract view
.subckt sky130_fd_sc_hd__inv_2 A VGND VNB VPB VPWR Y
.ends

* Black-box entry subcircuit for sky130_fd_sc_hd__xor2_1 abstract view
.subckt sky130_fd_sc_hd__xor2_1 A B VGND VNB VPB VPWR X
.ends

* Black-box entry subcircuit for sky130_fd_sc_hd__a31o_4 abstract view
.subckt sky130_fd_sc_hd__a31o_4 A1 A2 A3 B1 VGND VNB VPB VPWR X
.ends

* Black-box entry subcircuit for sky130_fd_sc_hd__xnor2_1 abstract view
.subckt sky130_fd_sc_hd__xnor2_1 A B VGND VNB VPB VPWR Y
.ends

* Black-box entry subcircuit for sky130_fd_sc_hd__buf_2 abstract view
.subckt sky130_fd_sc_hd__buf_2 A VGND VNB VPB VPWR X
.ends

* Black-box entry subcircuit for sky130_fd_sc_hd__nor2_1 abstract view
.subckt sky130_fd_sc_hd__nor2_1 A B VGND VNB VPB VPWR Y
.ends

* Black-box entry subcircuit for sky130_fd_sc_hd__a22oi_1 abstract view
.subckt sky130_fd_sc_hd__a22oi_1 A1 A2 B1 B2 VGND VNB VPB VPWR Y
.ends

* Black-box entry subcircuit for sky130_fd_sc_hd__clkbuf_16 abstract view
.subckt sky130_fd_sc_hd__clkbuf_16 A VGND VNB VPB VPWR X
.ends

* Black-box entry subcircuit for sky130_fd_sc_hd__o21a_1 abstract view
.subckt sky130_fd_sc_hd__o21a_1 A1 A2 B1 VGND VNB VPB VPWR X
.ends

* Black-box entry subcircuit for sky130_fd_sc_hd__and2_1 abstract view
.subckt sky130_fd_sc_hd__and2_1 A B VGND VNB VPB VPWR X
.ends

* Black-box entry subcircuit for sky130_fd_sc_hd__a31o_1 abstract view
.subckt sky130_fd_sc_hd__a31o_1 A1 A2 A3 B1 VGND VNB VPB VPWR X
.ends

* Black-box entry subcircuit for sky130_fd_sc_hd__a211o_1 abstract view
.subckt sky130_fd_sc_hd__a211o_1 A1 A2 B1 C1 VGND VNB VPB VPWR X
.ends

* Black-box entry subcircuit for sky130_fd_sc_hd__o31a_1 abstract view
.subckt sky130_fd_sc_hd__o31a_1 A1 A2 A3 B1 VGND VNB VPB VPWR X
.ends

* Black-box entry subcircuit for sky130_fd_sc_hd__a221o_1 abstract view
.subckt sky130_fd_sc_hd__a221o_1 A1 A2 B1 B2 C1 VGND VNB VPB VPWR X
.ends

* Black-box entry subcircuit for sky130_fd_sc_hd__nand2_1 abstract view
.subckt sky130_fd_sc_hd__nand2_1 A B VGND VNB VPB VPWR Y
.ends

* Black-box entry subcircuit for sky130_fd_sc_hd__a21o_1 abstract view
.subckt sky130_fd_sc_hd__a21o_1 A1 A2 B1 VGND VNB VPB VPWR X
.ends

* Black-box entry subcircuit for sky130_fd_sc_hd__and4_1 abstract view
.subckt sky130_fd_sc_hd__and4_1 A B C D VGND VNB VPB VPWR X
.ends

* Black-box entry subcircuit for sky130_fd_sc_hd__o21ba_1 abstract view
.subckt sky130_fd_sc_hd__o21ba_1 A1 A2 B1_N VGND VNB VPB VPWR X
.ends

* Black-box entry subcircuit for sky130_fd_sc_hd__clkinv_4 abstract view
.subckt sky130_fd_sc_hd__clkinv_4 A VGND VNB VPB VPWR Y
.ends

* Black-box entry subcircuit for sky130_fd_sc_hd__o21ai_1 abstract view
.subckt sky130_fd_sc_hd__o21ai_1 A1 A2 B1 VGND VNB VPB VPWR Y
.ends

* Black-box entry subcircuit for sky130_fd_sc_hd__bufinv_16 abstract view
.subckt sky130_fd_sc_hd__bufinv_16 A VGND VNB VPB VPWR Y
.ends

* Black-box entry subcircuit for sky130_fd_sc_hd__and4bb_1 abstract view
.subckt sky130_fd_sc_hd__and4bb_1 A_N B_N C D VGND VNB VPB VPWR X
.ends

* Black-box entry subcircuit for sky130_fd_sc_hd__buf_4 abstract view
.subckt sky130_fd_sc_hd__buf_4 A VGND VNB VPB VPWR X
.ends

* Black-box entry subcircuit for sky130_fd_sc_hd__clkinvlp_4 abstract view
.subckt sky130_fd_sc_hd__clkinvlp_4 A VGND VNB VPB VPWR Y
.ends

* Black-box entry subcircuit for sky130_fd_sc_hd__nand4_1 abstract view
.subckt sky130_fd_sc_hd__nand4_1 A B C D VGND VNB VPB VPWR Y
.ends

* Black-box entry subcircuit for sky130_fd_sc_hd__or2_1 abstract view
.subckt sky130_fd_sc_hd__or2_1 A B VGND VNB VPB VPWR X
.ends

* Black-box entry subcircuit for sky130_fd_sc_hd__and2b_1 abstract view
.subckt sky130_fd_sc_hd__and2b_1 A_N B VGND VNB VPB VPWR X
.ends

* Black-box entry subcircuit for sky130_fd_sc_hd__a22o_1 abstract view
.subckt sky130_fd_sc_hd__a22o_1 A1 A2 B1 B2 VGND VNB VPB VPWR X
.ends

* Black-box entry subcircuit for sky130_fd_sc_hd__clkbuf_2 abstract view
.subckt sky130_fd_sc_hd__clkbuf_2 A VGND VNB VPB VPWR X
.ends

* Black-box entry subcircuit for sky130_fd_sc_hd__o221a_1 abstract view
.subckt sky130_fd_sc_hd__o221a_1 A1 A2 B1 B2 C1 VGND VNB VPB VPWR X
.ends

* Black-box entry subcircuit for sky130_fd_sc_hd__dlymetal6s2s_1 abstract view
.subckt sky130_fd_sc_hd__dlymetal6s2s_1 A VGND VNB VPB VPWR X
.ends

* Black-box entry subcircuit for sky130_fd_sc_hd__xnor2_2 abstract view
.subckt sky130_fd_sc_hd__xnor2_2 A B VGND VNB VPB VPWR Y
.ends

* Black-box entry subcircuit for sky130_fd_sc_hd__o211a_1 abstract view
.subckt sky130_fd_sc_hd__o211a_1 A1 A2 B1 C1 VGND VNB VPB VPWR X
.ends

* Black-box entry subcircuit for sky130_fd_sc_hd__and4b_1 abstract view
.subckt sky130_fd_sc_hd__and4b_1 A_N B C D VGND VNB VPB VPWR X
.ends

* Black-box entry subcircuit for sky130_fd_sc_hd__o2bb2a_1 abstract view
.subckt sky130_fd_sc_hd__o2bb2a_1 A1_N A2_N B1 B2 VGND VNB VPB VPWR X
.ends

* Black-box entry subcircuit for sky130_fd_sc_hd__clkbuf_8 abstract view
.subckt sky130_fd_sc_hd__clkbuf_8 A VGND VNB VPB VPWR X
.ends

* Black-box entry subcircuit for sky130_fd_sc_hd__a21boi_2 abstract view
.subckt sky130_fd_sc_hd__a21boi_2 A1 A2 B1_N VGND VNB VPB VPWR Y
.ends

* Black-box entry subcircuit for sky130_fd_sc_hd__or3_1 abstract view
.subckt sky130_fd_sc_hd__or3_1 A B C VGND VNB VPB VPWR X
.ends

* Black-box entry subcircuit for sky130_fd_sc_hd__or2_4 abstract view
.subckt sky130_fd_sc_hd__or2_4 A B VGND VNB VPB VPWR X
.ends

* Black-box entry subcircuit for sky130_fd_sc_hd__a41o_1 abstract view
.subckt sky130_fd_sc_hd__a41o_1 A1 A2 A3 A4 B1 VGND VNB VPB VPWR X
.ends

* Black-box entry subcircuit for sky130_fd_sc_hd__clkbuf_1 abstract view
.subckt sky130_fd_sc_hd__clkbuf_1 A VGND VNB VPB VPWR X
.ends

* Black-box entry subcircuit for sky130_fd_sc_hd__clkbuf_4 abstract view
.subckt sky130_fd_sc_hd__clkbuf_4 A VGND VNB VPB VPWR X
.ends

* Black-box entry subcircuit for sky130_fd_sc_hd__a2bb2o_1 abstract view
.subckt sky130_fd_sc_hd__a2bb2o_1 A1_N A2_N B1 B2 VGND VNB VPB VPWR X
.ends

* Black-box entry subcircuit for sky130_fd_sc_hd__o21bai_1 abstract view
.subckt sky130_fd_sc_hd__o21bai_1 A1 A2 B1_N VGND VNB VPB VPWR Y
.ends

* Black-box entry subcircuit for sky130_fd_sc_hd__or4_4 abstract view
.subckt sky130_fd_sc_hd__or4_4 A B C D VGND VNB VPB VPWR X
.ends

* Black-box entry subcircuit for sky130_fd_sc_hd__nand3_1 abstract view
.subckt sky130_fd_sc_hd__nand3_1 A B C VGND VNB VPB VPWR Y
.ends

* Black-box entry subcircuit for sky130_fd_sc_hd__xor2_2 abstract view
.subckt sky130_fd_sc_hd__xor2_2 A B VGND VNB VPB VPWR X
.ends

* Black-box entry subcircuit for sky130_fd_sc_hd__dlygate4sd3_1 abstract view
.subckt sky130_fd_sc_hd__dlygate4sd3_1 A VGND VNB VPB VPWR X
.ends

* Black-box entry subcircuit for sky130_fd_sc_hd__a211oi_1 abstract view
.subckt sky130_fd_sc_hd__a211oi_1 A1 A2 B1 C1 VGND VNB VPB VPWR Y
.ends

* Black-box entry subcircuit for sky130_fd_sc_hd__nand2b_1 abstract view
.subckt sky130_fd_sc_hd__nand2b_1 A_N B VGND VNB VPB VPWR Y
.ends

* Black-box entry subcircuit for sky130_fd_sc_hd__a21bo_1 abstract view
.subckt sky130_fd_sc_hd__a21bo_1 A1 A2 B1_N VGND VNB VPB VPWR X
.ends

* Black-box entry subcircuit for sky130_fd_sc_hd__o311a_1 abstract view
.subckt sky130_fd_sc_hd__o311a_1 A1 A2 A3 B1 C1 VGND VNB VPB VPWR X
.ends

.subckt mult VGND VPWR a[0] a[1] a[2] a[3] a[4] a[5] a[6] a[7] b[0] b[1] b[2] b[3]
+ b[4] b[5] b[6] b[7] clk product[0] product[10] product[11] product[12] product[13]
+ product[14] product[15] product[1] product[2] product[3] product[4] product[5] product[6]
+ product[7] product[8] product[9] rst
XFILLER_22_133 VGND VGND VPWR VPWR sky130_fd_sc_hd__decap_6
X_432_ net35 net46 _137_ VGND VGND VPWR VPWR _157_ sky130_fd_sc_hd__and3_1
XFILLER_26_85 VGND VGND VPWR VPWR sky130_fd_sc_hd__decap_3
XFILLER_26_41 VPWR VGND VPWR VGND sky130_ef_sc_hd__decap_12
X_501_ net45 net42 _210_ _217_ VGND VGND VPWR VPWR _218_ sky130_fd_sc_hd__a31oi_1
XTAP_TAPCELL_ROW_15_128 VGND VPWR sky130_fd_sc_hd__tapvpwrvgnd_1
XFILLER_13_111 VGND VGND VPWR VPWR sky130_fd_sc_hd__fill_1
XFILLER_3_45 VGND VGND VPWR VPWR sky130_fd_sc_hd__fill_1
XFILLER_9_104 VGND VGND VPWR VPWR sky130_fd_sc_hd__decap_8
X_415_ _121_ _125_ _140_ VGND VGND VPWR VPWR _142_ sky130_fd_sc_hd__nor3_1
XFILLER_12_76 VGND VGND VPWR VPWR sky130_fd_sc_hd__decap_3
XFILLER_24_206 VGND VGND VPWR VPWR sky130_fd_sc_hd__decap_4
XFILLER_5_151 VGND VGND VPWR VPWR sky130_fd_sc_hd__fill_1
XFILLER_0_57 VGND VGND VPWR VPWR sky130_fd_sc_hd__decap_6
XFILLER_9_55 VGND VGND VPWR VPWR sky130_fd_sc_hd__fill_1
XFILLER_34_85 VGND VGND VPWR VPWR sky130_fd_sc_hd__fill_1
XFILLER_18_75 VGND VGND VPWR VPWR sky130_fd_sc_hd__decap_8
X_680_ net54 net39 _270_ VGND VGND VPWR VPWR _370_ sky130_fd_sc_hd__a21oi_1
XFILLER_35_109 VGND VGND VPWR VPWR sky130_fd_sc_hd__decap_3
X_801_ clknet_3_7__leaf_clk _038_ _091_ VGND VGND VPWR VPWR pp3\[7\] sky130_fd_sc_hd__dfrtp_1
XFILLER_29_52 VGND VGND VPWR VPWR sky130_fd_sc_hd__decap_4
XFILLER_28_194 VGND VGND VPWR VPWR sky130_fd_sc_hd__fill_2
X_732_ net60 VGND VGND VPWR VPWR _086_ sky130_fd_sc_hd__inv_2
X_663_ _355_ _358_ VGND VGND VPWR VPWR _013_ sky130_fd_sc_hd__xor2_1
X_594_ _283_ _286_ _293_ _300_ VGND VGND VPWR VPWR _301_ sky130_fd_sc_hd__a31o_4
XFILLER_4_205 VGND VGND VPWR VPWR sky130_fd_sc_hd__fill_2
XFILLER_34_197 VPWR VGND VPWR VGND sky130_ef_sc_hd__decap_12
XFILLER_34_175 VGND VGND VPWR VPWR sky130_fd_sc_hd__fill_1
XFILLER_13_3 VGND VGND VPWR VPWR sky130_fd_sc_hd__decap_8
XFILLER_15_21 VGND VGND VPWR VPWR sky130_fd_sc_hd__fill_1
X_646_ _110_ _344_ VGND VGND VPWR VPWR _026_ sky130_fd_sc_hd__xnor2_1
XFILLER_31_167 VGND VGND VPWR VPWR sky130_fd_sc_hd__fill_1
XFILLER_31_145 VGND VGND VPWR VPWR sky130_fd_sc_hd__fill_1
XFILLER_31_75 VGND VGND VPWR VPWR sky130_fd_sc_hd__decap_3
Xoutput20 net20 VGND VGND VPWR VPWR product[11] sky130_fd_sc_hd__buf_2
XFILLER_16_197 VGND VGND VPWR VPWR sky130_fd_sc_hd__decap_8
X_577_ _284_ _285_ VGND VGND VPWR VPWR _286_ sky130_fd_sc_hd__nor2_1
Xoutput31 net31 VGND VGND VPWR VPWR product[7] sky130_fd_sc_hd__buf_2
X_715_ net57 VGND VGND VPWR VPWR _069_ sky130_fd_sc_hd__inv_2
XFILLER_22_101 VGND VGND VPWR VPWR sky130_fd_sc_hd__decap_8
X_431_ _149_ _156_ VGND VGND VPWR VPWR _036_ sky130_fd_sc_hd__xnor2_1
XFILLER_26_53 VGND VGND VPWR VPWR sky130_fd_sc_hd__decap_4
X_500_ net47 net42 net43 net45 VGND VGND VPWR VPWR _217_ sky130_fd_sc_hd__a22oi_1
Xclkbuf_3_6__f_clk clknet_0_clk VGND VGND VPWR VPWR clknet_3_6__leaf_clk sky130_fd_sc_hd__clkbuf_16
XTAP_TAPCELL_ROW_15_129 VGND VPWR sky130_fd_sc_hd__tapvpwrvgnd_1
XFILLER_13_167 VGND VGND VPWR VPWR sky130_fd_sc_hd__fill_1
XFILLER_3_35 VGND VGND VPWR VPWR sky130_fd_sc_hd__decap_3
X_629_ _331_ _332_ VGND VGND VPWR VPWR _333_ sky130_fd_sc_hd__xnor2_1
X_414_ _121_ _125_ _140_ VGND VGND VPWR VPWR _141_ sky130_fd_sc_hd__o21a_1
XPHY_EDGE_ROW_21_Right_21 VGND VGND VPWR VPWR sky130_fd_sc_hd__decap_3
XPHY_EDGE_ROW_12_Right_12 VGND VGND VPWR VPWR sky130_fd_sc_hd__decap_3
XPHY_EDGE_ROW_30_Right_30 VGND VGND VPWR VPWR sky130_fd_sc_hd__decap_3
XPHY_EDGE_ROW_28_Left_64 VGND VGND VPWR VPWR sky130_fd_sc_hd__decap_3
XPHY_EDGE_ROW_12_Left_48 VGND VGND VPWR VPWR sky130_fd_sc_hd__decap_3
X_800_ clknet_3_5__leaf_clk _037_ _090_ VGND VGND VPWR VPWR pp3\[6\] sky130_fd_sc_hd__dfrtp_1
X_731_ net62 VGND VGND VPWR VPWR _085_ sky130_fd_sc_hd__inv_2
X_662_ _352_ _357_ VGND VGND VPWR VPWR _358_ sky130_fd_sc_hd__and2_1
X_593_ _293_ pp1\[2\] pp2\[2\] _292_ VGND VGND VPWR VPWR _300_ sky130_fd_sc_hd__a31o_1
XFILLER_15_55 VGND VGND VPWR VPWR sky130_fd_sc_hd__fill_1
XPHY_EDGE_ROW_6_Right_6 VGND VGND VPWR VPWR sky130_fd_sc_hd__decap_3
X_645_ _338_ _342_ _109_ _110_ VGND VGND VPWR VPWR _346_ sky130_fd_sc_hd__a211o_1
Xoutput21 net21 VGND VGND VPWR VPWR product[12] sky130_fd_sc_hd__buf_2
XFILLER_31_113 VGND VGND VPWR VPWR sky130_fd_sc_hd__decap_4
XFILLER_31_87 VGND VGND VPWR VPWR sky130_fd_sc_hd__fill_1
XTAP_TAPCELL_ROW_18_138 VGND VPWR sky130_fd_sc_hd__tapvpwrvgnd_1
Xoutput32 net32 VGND VGND VPWR VPWR product[8] sky130_fd_sc_hd__buf_2
X_576_ pp2\[2\] pp1\[2\] VGND VGND VPWR VPWR _285_ sky130_fd_sc_hd__and2_1
X_714_ net57 VGND VGND VPWR VPWR _068_ sky130_fd_sc_hd__inv_2
X_430_ _141_ _155_ VGND VGND VPWR VPWR _156_ sky130_fd_sc_hd__xnor2_1
XFILLER_21_190 VGND VGND VPWR VPWR sky130_fd_sc_hd__fill_1
XPHY_EDGE_ROW_15_Left_51 VGND VGND VPWR VPWR sky130_fd_sc_hd__decap_3
XFILLER_13_113 VPWR VGND VPWR VGND sky130_ef_sc_hd__decap_12
X_628_ _310_ _321_ _322_ _319_ VGND VGND VPWR VPWR _332_ sky130_fd_sc_hd__o31a_1
X_559_ net51 net39 _246_ _274_ VGND VGND VPWR VPWR _016_ sky130_fd_sc_hd__a31o_1
XFILLER_12_34 VGND VGND VPWR VPWR sky130_fd_sc_hd__fill_1
XFILLER_12_23 VGND VGND VPWR VPWR sky130_fd_sc_hd__fill_1
XPHY_EDGE_ROW_0_Left_36 VGND VGND VPWR VPWR sky130_fd_sc_hd__decap_3
XFILLER_5_6 VGND VGND VPWR VPWR sky130_fd_sc_hd__decap_6
X_413_ _138_ _139_ VGND VGND VPWR VPWR _140_ sky130_fd_sc_hd__xnor2_1
XFILLER_5_120 VGND VGND VPWR VPWR sky130_fd_sc_hd__decap_8
XFILLER_23_77 VGND VGND VPWR VPWR sky130_fd_sc_hd__decap_8
XFILLER_0_15 VGND VGND VPWR VPWR sky130_fd_sc_hd__decap_8
XFILLER_3_3 VGND VGND VPWR VPWR sky130_fd_sc_hd__decap_8
XFILLER_29_119 VPWR VGND VPWR VGND sky130_ef_sc_hd__decap_12
XFILLER_28_141 VPWR VGND VPWR VGND sky130_ef_sc_hd__decap_12
X_661_ _239_ _356_ VGND VGND VPWR VPWR _357_ sky130_fd_sc_hd__nor2_1
X_730_ net62 VGND VGND VPWR VPWR _084_ sky130_fd_sc_hd__inv_2
X_592_ _298_ _299_ VGND VGND VPWR VPWR _030_ sky130_fd_sc_hd__xnor2_1
Xoutput22 net22 VGND VGND VPWR VPWR product[13] sky130_fd_sc_hd__buf_2
X_644_ _344_ _345_ VGND VGND VPWR VPWR _025_ sky130_fd_sc_hd__nor2_1
XFILLER_31_55 VGND VGND VPWR VPWR sky130_fd_sc_hd__fill_1
Xoutput33 net33 VGND VGND VPWR VPWR product[9] sky130_fd_sc_hd__buf_2
XTAP_TAPCELL_ROW_18_139 VGND VPWR sky130_fd_sc_hd__tapvpwrvgnd_1
XFILLER_16_133 VGND VGND VPWR VPWR sky130_fd_sc_hd__decap_6
X_575_ pp2\[2\] pp1\[2\] VGND VGND VPWR VPWR _284_ sky130_fd_sc_hd__nor2_1
X_713_ net59 VGND VGND VPWR VPWR _067_ sky130_fd_sc_hd__inv_2
XFILLER_31_169 VPWR VGND VPWR VGND sky130_ef_sc_hd__decap_12
XFILLER_13_169 VGND VGND VPWR VPWR sky130_fd_sc_hd__decap_4
XFILLER_13_125 VGND VGND VPWR VPWR sky130_fd_sc_hd__fill_2
XTAP_TAPCELL_ROW_9_107 VGND VPWR sky130_fd_sc_hd__tapvpwrvgnd_1
X_627_ _329_ _330_ VGND VGND VPWR VPWR _331_ sky130_fd_sc_hd__nor2_1
X_489_ net34 net50 _164_ _186_ _201_ VGND VGND VPWR VPWR _207_ sky130_fd_sc_hd__a221o_1
XFILLER_3_15 VPWR VGND VPWR VGND sky130_ef_sc_hd__decap_12
XFILLER_8_195 VGND VGND VPWR VPWR sky130_fd_sc_hd__fill_1
X_558_ _248_ _273_ VGND VGND VPWR VPWR _274_ sky130_fd_sc_hd__nor2_1
XTAP_TAPCELL_ROW_20_145 VGND VPWR sky130_fd_sc_hd__tapvpwrvgnd_1
XFILLER_12_68 VGND VGND VPWR VPWR sky130_fd_sc_hd__decap_8
X_412_ b_high\[1\] net46 VGND VGND VPWR VPWR _139_ sky130_fd_sc_hd__nand2_1
XFILLER_23_23 VPWR VGND VPWR VGND sky130_ef_sc_hd__decap_12
XFILLER_2_157 VPWR VGND VPWR VGND sky130_ef_sc_hd__decap_12
XFILLER_9_47 VGND VGND VPWR VPWR sky130_fd_sc_hd__decap_8
XFILLER_11_201 VGND VGND VPWR VPWR sky130_fd_sc_hd__decap_8
XFILLER_1_70 VGND VGND VPWR VPWR sky130_fd_sc_hd__fill_2
XFILLER_29_44 VGND VGND VPWR VPWR sky130_fd_sc_hd__decap_3
XFILLER_28_197 VGND VGND VPWR VPWR sky130_fd_sc_hd__decap_8
XFILLER_28_153 VGND VGND VPWR VPWR sky130_fd_sc_hd__decap_8
XFILLER_20_46 VGND VGND VPWR VPWR sky130_fd_sc_hd__decap_6
X_660_ net49 net40 _238_ VGND VGND VPWR VPWR _356_ sky130_fd_sc_hd__a21oi_1
X_591_ _289_ _291_ _288_ VGND VGND VPWR VPWR _299_ sky130_fd_sc_hd__a21o_1
XFILLER_6_15 VPWR VGND VPWR VGND sky130_ef_sc_hd__decap_12
XFILLER_19_120 VGND VGND VPWR VPWR sky130_fd_sc_hd__fill_1
X_789_ clknet_3_3__leaf_clk _012_ _079_ VGND VGND VPWR VPWR pp2\[3\] sky130_fd_sc_hd__dfrtp_1
Xoutput23 net23 VGND VGND VPWR VPWR product[14] sky130_fd_sc_hd__buf_2
XFILLER_25_167 VGND VGND VPWR VPWR sky130_fd_sc_hd__fill_1
XFILLER_15_57 VPWR VGND VPWR VGND sky130_ef_sc_hd__decap_12
XFILLER_15_35 VPWR VGND VPWR VGND sky130_ef_sc_hd__decap_12
X_712_ net59 VGND VGND VPWR VPWR _066_ sky130_fd_sc_hd__inv_2
X_643_ _109_ _338_ _342_ VGND VGND VPWR VPWR _345_ sky130_fd_sc_hd__and3_1
X_574_ _279_ pp1\[0\] pp2\[0\] _278_ VGND VGND VPWR VPWR _283_ sky130_fd_sc_hd__a31o_1
XTAP_TAPCELL_ROW_32_187 VGND VPWR sky130_fd_sc_hd__tapvpwrvgnd_1
XFILLER_30_170 VPWR VGND VPWR VGND sky130_ef_sc_hd__decap_12
XFILLER_26_23 VGND VGND VPWR VPWR sky130_fd_sc_hd__decap_4
XTAP_TAPCELL_ROW_9_108 VGND VPWR sky130_fd_sc_hd__tapvpwrvgnd_1
X_626_ pp2\[7\] pp1\[7\] VGND VGND VPWR VPWR _330_ sky130_fd_sc_hd__nor2_1
X_488_ net36 net34 a_low\[2\] net51 VGND VGND VPWR VPWR _206_ sky130_fd_sc_hd__and4_1
XFILLER_3_27 VGND VGND VPWR VPWR sky130_fd_sc_hd__decap_8
X_557_ _260_ _272_ _261_ VGND VGND VPWR VPWR _273_ sky130_fd_sc_hd__o21ba_1
XTAP_TAPCELL_ROW_20_146 VGND VPWR sky130_fd_sc_hd__tapvpwrvgnd_1
XFILLER_8_141 VPWR VGND VPWR VGND sky130_ef_sc_hd__decap_12
X_411_ _120_ _137_ _136_ VGND VGND VPWR VPWR _138_ sky130_fd_sc_hd__a21oi_1
XFILLER_5_111 VGND VGND VPWR VPWR sky130_fd_sc_hd__fill_1
X_609_ pp3\[1\] _314_ VGND VGND VPWR VPWR _315_ sky130_fd_sc_hd__nor2_1
XFILLER_23_35 VGND VGND VPWR VPWR sky130_fd_sc_hd__fill_2
XFILLER_2_114 VGND VGND VPWR VPWR sky130_fd_sc_hd__decap_3
XFILLER_2_169 VPWR VGND VPWR VGND sky130_ef_sc_hd__decap_12
XFILLER_4_70 VGND VGND VPWR VPWR sky130_fd_sc_hd__decap_4
XFILLER_9_26 VPWR VGND VPWR VGND sky130_ef_sc_hd__decap_12
Xclkload0 clknet_3_0__leaf_clk VGND VGND VPWR VPWR clkload0/Y sky130_fd_sc_hd__clkinv_4
XFILLER_29_78 VGND VGND VPWR VPWR sky130_fd_sc_hd__fill_1
XFILLER_20_69 VGND VGND VPWR VPWR sky130_fd_sc_hd__fill_1
X_590_ _296_ _297_ VGND VGND VPWR VPWR _298_ sky130_fd_sc_hd__nand2_1
XFILLER_34_179 VPWR VGND VPWR VGND sky130_ef_sc_hd__decap_12
X_788_ clknet_3_3__leaf_clk _002_ _078_ VGND VGND VPWR VPWR pp2\[2\] sky130_fd_sc_hd__dfrtp_1
XFILLER_6_27 VGND VGND VPWR VPWR sky130_fd_sc_hd__fill_1
Xoutput24 net24 VGND VGND VPWR VPWR product[15] sky130_fd_sc_hd__buf_2
XFILLER_31_57 VPWR VGND VPWR VGND sky130_ef_sc_hd__decap_12
XFILLER_25_113 VGND VGND VPWR VPWR sky130_fd_sc_hd__fill_2
XFILLER_15_47 VGND VGND VPWR VPWR sky130_fd_sc_hd__decap_8
X_642_ _338_ _342_ _109_ VGND VGND VPWR VPWR _344_ sky130_fd_sc_hd__a21oi_1
XFILLER_31_149 VPWR VGND VPWR VGND sky130_ef_sc_hd__decap_12
XFILLER_31_105 VGND VGND VPWR VPWR sky130_fd_sc_hd__decap_6
XPHY_EDGE_ROW_28_Right_28 VGND VGND VPWR VPWR sky130_fd_sc_hd__decap_3
XPHY_EDGE_ROW_19_Right_19 VGND VGND VPWR VPWR sky130_fd_sc_hd__decap_3
X_711_ net57 VGND VGND VPWR VPWR _065_ sky130_fd_sc_hd__inv_2
X_573_ _277_ _282_ VGND VGND VPWR VPWR _028_ sky130_fd_sc_hd__xor2_1
Xclkbuf_3_1__f_clk clknet_0_clk VGND VGND VPWR VPWR clknet_3_1__leaf_clk sky130_fd_sc_hd__clkbuf_16
XTAP_TAPCELL_ROW_32_188 VGND VPWR sky130_fd_sc_hd__tapvpwrvgnd_1
XFILLER_30_182 VPWR VGND VPWR VGND sky130_ef_sc_hd__decap_12
XTAP_TAPCELL_ROW_9_109 VGND VPWR sky130_fd_sc_hd__tapvpwrvgnd_1
X_625_ pp2\[7\] pp1\[7\] VGND VGND VPWR VPWR _329_ sky130_fd_sc_hd__and2_1
XFILLER_13_105 VGND VGND VPWR VPWR sky130_fd_sc_hd__decap_6
XPHY_EDGE_ROW_19_Left_55 VGND VGND VPWR VPWR sky130_fd_sc_hd__decap_3
X_487_ _204_ _205_ VGND VGND VPWR VPWR _042_ sky130_fd_sc_hd__xnor2_1
X_556_ _268_ _271_ _262_ VGND VGND VPWR VPWR _272_ sky130_fd_sc_hd__o21ai_1
XFILLER_8_153 VGND VGND VPWR VPWR sky130_fd_sc_hd__fill_2
XFILLER_8_175 VPWR VGND VPWR VGND sky130_ef_sc_hd__decap_12
XFILLER_8_197 VGND VGND VPWR VPWR sky130_fd_sc_hd__decap_4
X_410_ net36 a_high\[2\] VGND VGND VPWR VPWR _137_ sky130_fd_sc_hd__nand2_1
XTAP_TAPCELL_ROW_20_147 VGND VPWR sky130_fd_sc_hd__tapvpwrvgnd_1
XFILLER_12_15 VGND VGND VPWR VPWR sky130_fd_sc_hd__decap_4
X_608_ _312_ _313_ VGND VGND VPWR VPWR _314_ sky130_fd_sc_hd__xnor2_1
XTAP_TAPCELL_ROW_11_114 VGND VPWR sky130_fd_sc_hd__tapvpwrvgnd_1
X_539_ _252_ _254_ VGND VGND VPWR VPWR _255_ sky130_fd_sc_hd__nor2_1
XFILLER_5_156 VPWR VGND VPWR VGND sky130_ef_sc_hd__decap_12
XFILLER_0_29 VGND VGND VPWR VPWR sky130_fd_sc_hd__fill_1
XFILLER_9_38 VGND VGND VPWR VPWR sky130_fd_sc_hd__decap_4
XFILLER_1_181 VPWR VGND VPWR VGND sky130_ef_sc_hd__decap_12
XTAP_TAPCELL_ROW_0_72 VGND VPWR sky130_fd_sc_hd__tapvpwrvgnd_1
XFILLER_34_57 VGND VGND VPWR VPWR sky130_fd_sc_hd__fill_2
XFILLER_1_3 VPWR VGND VPWR VGND sky130_ef_sc_hd__decap_12
Xclkload1 clknet_3_1__leaf_clk VGND VGND VPWR VPWR clkload1/Y sky130_fd_sc_hd__bufinv_16
XFILLER_34_3 VPWR VGND VPWR VGND sky130_ef_sc_hd__decap_12
XFILLER_1_50 VGND VGND VPWR VPWR sky130_fd_sc_hd__fill_2
XFILLER_20_15 VPWR VGND VPWR VGND sky130_ef_sc_hd__decap_12
XFILLER_34_169 VGND VGND VPWR VPWR sky130_fd_sc_hd__decap_6
XFILLER_19_144 VGND VGND VPWR VPWR sky130_fd_sc_hd__fill_1
XFILLER_10_92 VGND VGND VPWR VPWR sky130_fd_sc_hd__decap_4
XPHY_EDGE_ROW_7_Left_43 VGND VGND VPWR VPWR sky130_fd_sc_hd__decap_3
X_787_ clknet_3_2__leaf_clk _001_ _077_ VGND VGND VPWR VPWR pp2\[1\] sky130_fd_sc_hd__dfrtp_1
XFILLER_31_14 VGND VGND VPWR VPWR sky130_fd_sc_hd__decap_3
XFILLER_25_169 VGND VGND VPWR VPWR sky130_fd_sc_hd__fill_1
XFILLER_15_26 VGND VGND VPWR VPWR sky130_fd_sc_hd__fill_1
XFILLER_15_15 VGND VGND VPWR VPWR sky130_fd_sc_hd__decap_6
XPHY_EDGE_ROW_33_Left_69 VGND VGND VPWR VPWR sky130_fd_sc_hd__decap_3
XFILLER_31_117 VGND VGND VPWR VPWR sky130_fd_sc_hd__fill_1
XFILLER_31_69 VGND VGND VPWR VPWR sky130_fd_sc_hd__decap_3
X_641_ _342_ _343_ VGND VGND VPWR VPWR _024_ sky130_fd_sc_hd__and2_1
Xoutput25 net25 VGND VGND VPWR VPWR product[1] sky130_fd_sc_hd__buf_2
X_710_ net57 VGND VGND VPWR VPWR _064_ sky130_fd_sc_hd__inv_2
X_572_ pp0\[5\] _280_ VGND VGND VPWR VPWR _282_ sky130_fd_sc_hd__xnor2_1
XTAP_TAPCELL_ROW_32_189 VGND VPWR sky130_fd_sc_hd__tapvpwrvgnd_1
XFILLER_30_194 VGND VGND VPWR VPWR sky130_fd_sc_hd__fill_2
XFILLER_22_139 VGND VGND VPWR VPWR sky130_fd_sc_hd__fill_1
XTAP_TAPCELL_ROW_23_156 VGND VPWR sky130_fd_sc_hd__tapvpwrvgnd_1
XFILLER_27_209 VGND VGND VPWR VPWR sky130_fd_sc_hd__fill_2
X_624_ _326_ _328_ VGND VGND VPWR VPWR _022_ sky130_fd_sc_hd__xor2_1
X_486_ _171_ _183_ _199_ _197_ VGND VGND VPWR VPWR _205_ sky130_fd_sc_hd__o31a_1
X_555_ net54 net39 _270_ VGND VGND VPWR VPWR _271_ sky130_fd_sc_hd__and3_1
XFILLER_8_187 VGND VGND VPWR VPWR sky130_fd_sc_hd__decap_8
XTAP_TAPCELL_ROW_20_148 VGND VPWR sky130_fd_sc_hd__tapvpwrvgnd_1
XFILLER_27_90 VGND VGND VPWR VPWR sky130_fd_sc_hd__fill_1
X_607_ _301_ _304_ _303_ VGND VGND VPWR VPWR _313_ sky130_fd_sc_hd__a21oi_1
XPHY_EDGE_ROW_20_Left_56 VGND VGND VPWR VPWR sky130_fd_sc_hd__decap_3
XTAP_TAPCELL_ROW_11_115 VGND VPWR sky130_fd_sc_hd__tapvpwrvgnd_1
X_538_ _252_ _253_ net53 net41 VGND VGND VPWR VPWR _254_ sky130_fd_sc_hd__and4bb_1
XFILLER_23_48 VGND VGND VPWR VPWR sky130_fd_sc_hd__fill_1
X_469_ _165_ _187_ _188_ VGND VGND VPWR VPWR _189_ sky130_fd_sc_hd__o21a_1
Xfanout60 net61 VGND VGND VPWR VPWR net60 sky130_fd_sc_hd__buf_4
XFILLER_13_70 VPWR VGND VPWR VGND sky130_ef_sc_hd__decap_12
XFILLER_2_149 VGND VGND VPWR VPWR sky130_fd_sc_hd__fill_2
XFILLER_29_6 VGND VGND VPWR VPWR sky130_fd_sc_hd__decap_6
XFILLER_1_193 VPWR VGND VPWR VGND sky130_ef_sc_hd__decap_12
XTAP_TAPCELL_ROW_0_73 VGND VPWR sky130_fd_sc_hd__tapvpwrvgnd_1
XFILLER_18_48 VGND VGND VPWR VPWR sky130_fd_sc_hd__fill_2
XFILLER_18_15 VPWR VGND VPWR VGND sky130_ef_sc_hd__decap_12
Xclkload2 clknet_3_3__leaf_clk VGND VGND VPWR VPWR clkload2/Y sky130_fd_sc_hd__clkinvlp_4
XFILLER_20_27 VGND VGND VPWR VPWR sky130_fd_sc_hd__fill_1
XFILLER_19_189 VPWR VGND VPWR VGND sky130_ef_sc_hd__decap_12
X_786_ clknet_3_1__leaf_clk _000_ _076_ VGND VGND VPWR VPWR pp2\[0\] sky130_fd_sc_hd__dfrtp_1
XFILLER_10_82 VGND VGND VPWR VPWR sky130_fd_sc_hd__fill_2
XFILLER_6_29 VGND VGND VPWR VPWR sky130_fd_sc_hd__decap_6
XTAP_TAPCELL_ROW_35_198 VGND VPWR sky130_fd_sc_hd__tapvpwrvgnd_1
XFILLER_33_192 VPWR VGND VPWR VGND sky130_ef_sc_hd__decap_12
X_640_ _334_ _339_ _340_ _341_ VGND VGND VPWR VPWR _343_ sky130_fd_sc_hd__nand4_1
XPHY_EDGE_ROW_1_Right_1 VGND VGND VPWR VPWR sky130_fd_sc_hd__decap_3
Xoutput26 net26 VGND VGND VPWR VPWR product[2] sky130_fd_sc_hd__buf_2
X_571_ pp0\[5\] _280_ VGND VGND VPWR VPWR _281_ sky130_fd_sc_hd__nand2_1
X_769_ clknet_3_7__leaf_clk _027_ _059_ VGND VGND VPWR VPWR net24 sky130_fd_sc_hd__dfrtp_1
XFILLER_30_151 VPWR VGND VPWR VGND sky130_ef_sc_hd__decap_12
XFILLER_15_181 VPWR VGND VPWR VGND sky130_ef_sc_hd__decap_12
XTAP_TAPCELL_ROW_23_157 VGND VPWR sky130_fd_sc_hd__tapvpwrvgnd_1
XFILLER_21_173 VGND VGND VPWR VPWR sky130_fd_sc_hd__fill_1
X_623_ _315_ _327_ VGND VGND VPWR VPWR _328_ sky130_fd_sc_hd__or2_1
X_485_ _202_ _203_ VGND VGND VPWR VPWR _204_ sky130_fd_sc_hd__and2b_1
XTAP_TAPCELL_ROW_14_124 VGND VPWR sky130_fd_sc_hd__tapvpwrvgnd_1
XFILLER_12_195 VGND VGND VPWR VPWR sky130_fd_sc_hd__fill_1
X_554_ _268_ _269_ VGND VGND VPWR VPWR _270_ sky130_fd_sc_hd__nor2_1
XFILLER_8_100 VPWR VGND VPWR VGND sky130_ef_sc_hd__decap_12
XFILLER_8_133 VGND VGND VPWR VPWR sky130_fd_sc_hd__decap_6
XTAP_TAPCELL_ROW_11_116 VGND VPWR sky130_fd_sc_hd__tapvpwrvgnd_1
XFILLER_5_169 VGND VGND VPWR VPWR sky130_fd_sc_hd__fill_2
X_399_ _116_ _126_ VGND VGND VPWR VPWR _127_ sky130_fd_sc_hd__and2_1
X_606_ _310_ _311_ VGND VGND VPWR VPWR _312_ sky130_fd_sc_hd__nor2_1
X_468_ net36 net52 net50 net37 VGND VGND VPWR VPWR _188_ sky130_fd_sc_hd__a22o_1
XFILLER_4_95 VGND VGND VPWR VPWR sky130_fd_sc_hd__fill_1
X_537_ net50 net44 _243_ VGND VGND VPWR VPWR _253_ sky130_fd_sc_hd__a21oi_1
XFILLER_2_106 VGND VGND VPWR VPWR sky130_fd_sc_hd__decap_8
Xclkbuf_3_7__f_clk clknet_0_clk VGND VGND VPWR VPWR clknet_3_7__leaf_clk sky130_fd_sc_hd__clkbuf_16
Xfanout61 net62 VGND VGND VPWR VPWR net61 sky130_fd_sc_hd__buf_4
XFILLER_13_93 VPWR VGND VPWR VGND sky130_ef_sc_hd__decap_12
XFILLER_13_82 VGND VGND VPWR VPWR sky130_fd_sc_hd__decap_6
Xfanout50 net51 VGND VGND VPWR VPWR net50 sky130_fd_sc_hd__clkbuf_2
XTAP_TAPCELL_ROW_0_74 VGND VPWR sky130_fd_sc_hd__tapvpwrvgnd_1
XFILLER_34_15 VPWR VGND VPWR VGND sky130_ef_sc_hd__decap_12
Xclkload3 clknet_3_4__leaf_clk VGND VGND VPWR VPWR clkload3/Y sky130_fd_sc_hd__clkinv_4
XFILLER_18_27 VGND VGND VPWR VPWR sky130_fd_sc_hd__fill_1
XFILLER_29_15 VPWR VGND VPWR VGND sky130_ef_sc_hd__decap_12
X_785_ clknet_3_5__leaf_clk _039_ _075_ VGND VGND VPWR VPWR pp1\[7\] sky130_fd_sc_hd__dfrtp_1
XTAP_TAPCELL_ROW_35_199 VGND VPWR sky130_fd_sc_hd__tapvpwrvgnd_1
Xoutput27 net27 VGND VGND VPWR VPWR product[3] sky130_fd_sc_hd__buf_2
X_570_ _275_ _279_ VGND VGND VPWR VPWR _280_ sky130_fd_sc_hd__xnor2_1
X_768_ clknet_3_7__leaf_clk _026_ _058_ VGND VGND VPWR VPWR net23 sky130_fd_sc_hd__dfrtp_1
XFILLER_30_130 VGND VGND VPWR VPWR sky130_fd_sc_hd__decap_8
XTAP_TAPCELL_ROW_26_166 VGND VPWR sky130_fd_sc_hd__tapvpwrvgnd_1
X_699_ net61 VGND VGND VPWR VPWR _053_ sky130_fd_sc_hd__inv_2
Xclkbuf_0_clk clk VGND VGND VPWR VPWR clknet_0_clk sky130_fd_sc_hd__clkbuf_16
XFILLER_15_193 VPWR VGND VPWR VGND sky130_ef_sc_hd__decap_12
XFILLER_30_163 VGND VGND VPWR VPWR sky130_fd_sc_hd__fill_2
XFILLER_30_141 VGND VGND VPWR VPWR sky130_fd_sc_hd__decap_3
XFILLER_26_27 VGND VGND VPWR VPWR sky130_fd_sc_hd__fill_1
XPHY_EDGE_ROW_24_Right_24 VGND VGND VPWR VPWR sky130_fd_sc_hd__decap_3
XTAP_TAPCELL_ROW_23_158 VGND VPWR sky130_fd_sc_hd__tapvpwrvgnd_1
XPHY_EDGE_ROW_15_Right_15 VGND VGND VPWR VPWR sky130_fd_sc_hd__decap_3
XPHY_EDGE_ROW_33_Right_33 VGND VGND VPWR VPWR sky130_fd_sc_hd__decap_3
X_622_ _108_ _305_ _309_ _308_ _316_ VGND VGND VPWR VPWR _327_ sky130_fd_sc_hd__o221a_1
X_484_ _191_ _194_ _200_ _201_ VGND VGND VPWR VPWR _203_ sky130_fd_sc_hd__a211o_1
XTAP_TAPCELL_ROW_14_125 VGND VPWR sky130_fd_sc_hd__tapvpwrvgnd_1
X_553_ _264_ _265_ _267_ VGND VGND VPWR VPWR _269_ sky130_fd_sc_hd__nor3_1
XFILLER_8_112 VGND VGND VPWR VPWR sky130_fd_sc_hd__fill_1
XFILLER_5_104 VGND VGND VPWR VPWR sky130_fd_sc_hd__fill_2
X_398_ _124_ _125_ VGND VGND VPWR VPWR _126_ sky130_fd_sc_hd__nor2_1
X_605_ pp2\[5\] pp1\[5\] VGND VGND VPWR VPWR _311_ sky130_fd_sc_hd__and2_1
X_467_ net36 net50 VGND VGND VPWR VPWR _187_ sky130_fd_sc_hd__nand2_1
XFILLER_4_41 VPWR VGND VPWR VGND sky130_ef_sc_hd__decap_12
XFILLER_4_74 VGND VGND VPWR VPWR sky130_fd_sc_hd__fill_1
XFILLER_4_85 VGND VGND VPWR VPWR sky130_fd_sc_hd__fill_1
XFILLER_4_181 VGND VGND VPWR VPWR sky130_fd_sc_hd__fill_1
X_536_ net50 net44 _243_ VGND VGND VPWR VPWR _252_ sky130_fd_sc_hd__and3_1
Xfanout40 b_low\[3\] VGND VGND VPWR VPWR net40 sky130_fd_sc_hd__dlymetal6s2s_1
Xfanout51 a_low\[3\] VGND VGND VPWR VPWR net51 sky130_fd_sc_hd__clkbuf_2
XFILLER_1_162 VGND VGND VPWR VPWR sky130_fd_sc_hd__decap_6