*SPEF "ieee 1481-1999"
*DESIGN "mult"
*DATE "16:01:18 Thursday November 27, 2025"
*VENDOR "The OpenROAD Project"
*PROGRAM "OpenROAD"
*VERSION "edf00dff99f6c40d67a30c0e22a8191c5d2ed9d6"
*DESIGN_FLOW "NAME_SCOPE LOCAL" "PIN_CAP NONE"
*DIVIDER /
*DELIMITER :
*BUS_DELIMITER []
*T_UNIT 1 NS
*C_UNIT 1 PF
*R_UNIT 1 OHM
*L_UNIT 1 HENRY

*NAME_MAP
*3 a[0]
*4 a[1]
*5 a[2]
*6 a[3]
*7 a[4]
*8 a[5]
*9 a[6]
*10 a[7]
*11 b[0]
*12 b[1]
*13 b[2]
*14 b[3]
*15 b[4]
*16 b[5]
*17 b[6]
*18 b[7]
*19 clk
*20 product[0]
*21 product[10]
*22 product[11]
*23 product[12]
*24 product[13]
*25 product[14]
*26 product[15]
*27 product[1]
*28 product[2]
*29 product[3]
*30 product[4]
*31 product[5]
*32 product[6]
*33 product[7]
*34 product[8]
*35 product[9]
*36 rst
*37 _0000_
*38 _0001_
*39 _0002_
*40 _0003_
*41 _0004_
*42 _0005_
*43 _0006_
*44 _0007_
*45 _0008_
*46 _0009_
*47 _0010_
*48 _0011_
*49 _0012_
*50 _0013_
*51 _0014_
*52 _0015_
*53 _0016_
*54 _0017_
*55 _0018_
*56 _0019_
*57 _0020_
*58 _0021_
*59 _0022_
*60 _0023_
*61 _0024_
*62 _0025_
*63 _0026_
*64 _0027_
*65 _0028_
*66 _0029_
*67 _0030_
*68 _0031_
*69 _0032_
*70 _0033_
*71 _0034_
*72 _0035_
*73 _0036_
*74 _0037_
*75 _0038_
*76 _0039_
*77 _0040_
*78 _0041_
*79 _0042_
*80 _0043_
*81 _0044_
*82 _0045_
*83 _0046_
*84 _0047_
*85 _0048_
*86 _0049_
*87 _0050_
*88 _0051_
*89 _0052_
*90 _0053_
*91 _0054_
*92 _0055_
*93 _0056_
*94 _0057_
*95 _0058_
*96 _0059_
*97 _0060_
*98 _0061_
*99 _0062_
*100 _0063_
*101 _0064_
*102 _0065_
*103 _0066_
*104 _0067_
*105 _0068_
*106 _0069_
*107 _0070_
*108 _0071_
*109 _0072_
*110 _0073_
*111 _0074_
*112 _0075_
*113 _0076_
*114 _0077_
*115 _0078_
*116 _0079_
*117 _0080_
*118 _0081_
*119 _0082_
*120 _0083_
*121 _0084_
*122 _0085_
*123 _0086_
*124 _0087_
*125 _0088_
*126 _0089_
*127 _0090_
*128 _0091_
*129 _0092_
*130 _0093_
*131 _0094_
*132 _0095_
*133 _0096_
*134 _0097_
*135 _0098_
*136 _0099_
*137 _0100_
*138 _0101_
*139 _0102_
*140 _0103_
*141 _0104_
*142 _0105_
*143 _0106_
*144 _0107_
*145 _0108_
*146 _0109_
*147 _0110_
*148 _0111_
*149 _0112_
*150 _0113_
*151 _0114_
*152 _0115_
*153 _0116_
*154 _0117_
*155 _0118_
*156 _0119_
*157 _0120_
*158 _0121_
*159 _0122_
*160 _0123_
*161 _0124_
*162 _0125_
*163 _0126_
*164 _0127_
*165 _0128_
*166 _0129_
*167 _0130_
*168 _0131_
*169 _0132_
*170 _0133_
*171 _0134_
*172 _0135_
*173 _0136_
*174 _0137_
*175 _0138_
*176 _0139_
*177 _0140_
*178 _0141_
*179 _0142_
*180 _0143_
*181 _0144_
*182 _0145_
*183 _0146_
*184 _0147_
*185 _0148_
*186 _0149_
*187 _0150_
*188 _0151_
*189 _0152_
*190 _0153_
*191 _0154_
*192 _0155_
*193 _0156_
*194 _0157_
*195 _0158_
*196 _0159_
*197 _0160_
*198 _0161_
*199 _0162_
*200 _0163_
*201 _0164_
*202 _0165_
*203 _0166_
*204 _0167_
*205 _0168_
*206 _0169_
*207 _0170_
*208 _0171_
*209 _0172_
*210 _0173_
*211 _0174_
*212 _0175_
*213 _0176_
*214 _0177_
*215 _0178_
*216 _0179_
*217 _0180_
*218 _0181_
*219 _0182_
*220 _0183_
*221 _0184_
*222 _0185_
*223 _0186_
*224 _0187_
*225 _0188_
*226 _0189_
*227 _0190_
*228 _0191_
*229 _0192_
*230 _0193_
*231 _0194_
*232 _0195_
*233 _0196_
*234 _0197_
*235 _0198_
*236 _0199_
*237 _0200_
*238 _0201_
*239 _0202_
*240 _0203_
*241 _0204_
*242 _0205_
*243 _0206_
*244 _0207_
*245 _0208_
*246 _0209_
*247 _0210_
*248 _0211_
*249 _0212_
*250 _0213_
*251 _0214_
*252 _0215_
*253 _0216_
*254 _0217_
*255 _0218_
*256 _0219_
*257 _0220_
*258 _0221_
*259 _0222_
*260 _0223_
*261 _0224_
*262 _0225_
*263 _0226_
*264 _0227_
*265 _0228_
*266 _0229_
*267 _0230_
*268 _0231_
*269 _0232_
*270 _0233_
*271 _0234_
*272 _0235_
*273 _0236_
*274 _0237_
*275 _0238_
*276 _0239_
*277 _0240_
*278 _0241_
*279 _0242_
*280 _0243_
*281 _0244_
*282 _0245_
*283 _0246_
*284 _0247_
*285 _0248_
*286 _0249_
*287 _0250_
*288 _0251_
*289 _0252_
*290 _0253_
*291 _0254_
*292 _0255_
*293 _0256_
*294 _0257_
*295 _0258_
*296 _0259_
*297 _0260_
*298 _0261_
*299 _0262_
*300 _0263_
*301 _0264_
*302 _0265_
*303 _0266_
*304 _0267_
*305 _0268_
*306 _0269_
*307 _0270_
*308 _0271_
*309 _0272_
*310 _0273_
*311 _0274_
*312 _0275_
*313 _0276_
*314 _0277_
*315 _0278_
*316 _0279_
*317 _0280_
*318 _0281_
*319 _0282_
*320 _0283_
*321 _0284_
*322 _0285_
*323 _0286_
*324 _0287_
*325 _0288_
*326 _0289_
*327 _0290_
*328 _0291_
*329 _0292_
*330 _0293_
*331 _0294_
*332 _0295_
*333 _0296_
*334 _0297_
*335 _0298_
*336 _0299_
*337 _0300_
*338 _0301_
*339 _0302_
*340 _0303_
*341 _0304_
*342 _0305_
*343 _0306_
*344 _0307_
*345 _0308_
*346 _0309_
*347 _0310_
*348 _0311_
*349 _0312_
*350 _0313_
*351 _0314_
*352 _0315_
*353 _0316_
*354 _0317_
*355 _0318_
*356 _0319_
*357 _0320_
*358 _0321_
*359 _0322_
*360 _0323_
*361 _0324_
*362 _0325_
*363 _0326_
*364 _0327_
*365 _0328_
*366 _0329_
*367 _0330_
*368 _0331_
*369 _0332_
*370 _0333_
*371 _0334_
*372 _0335_
*373 _0336_
*374 _0337_
*375 _0338_
*376 _0339_
*377 _0340_
*378 _0341_
*379 _0342_
*380 _0343_
*381 _0344_
*382 _0345_
*383 _0346_
*384 _0347_
*385 _0348_
*386 _0349_
*387 _0350_
*388 _0351_
*389 _0352_
*390 _0353_
*391 _0354_
*392 _0355_
*393 _0356_
*394 _0357_
*395 _0358_
*396 _0359_
*397 _0360_
*398 _0361_
*399 _0362_
*400 _0363_
*401 _0364_
*402 _0365_
*403 _0366_
*404 _0367_
*405 _0368_
*406 _0369_
*407 _0370_
*408 _0371_
*409 _0372_
*410 _0373_
*411 _0374_
*412 _0375_
*413 _0376_
*414 _0377_
*415 _0378_
*416 _0379_
*417 _0380_
*418 _0381_
*419 _0382_
*420 _0383_
*421 _0384_
*422 _0385_
*423 _0386_
*424 _0387_
*425 _0388_
*426 _0389_
*427 _0390_
*428 _0391_
*429 _0392_
*430 _0393_
*431 _0394_
*432 _0395_
*433 _0396_
*434 _0397_
*435 _0398_
*436 _0399_
*437 _0400_
*438 _0401_
*439 _0402_
*440 _0403_
*441 _0404_
*442 _0405_
*443 _0406_
*444 _0407_
*445 _0408_
*446 _0409_
*447 _0410_
*448 _0411_
*449 _0412_
*450 _0413_
*451 _0414_
*452 _0415_
*453 _0416_
*454 _0417_
*455 _0418_
*456 _0419_
*457 _0420_
*458 _0421_
*459 _0422_
*460 _0423_
*461 _0424_
*462 _0425_
*463 _0426_
*464 _0427_
*465 _0428_
*466 _0429_
*467 _0430_
*468 _0431_
*469 _0432_
*470 _0433_
*471 _0434_
*472 _0435_
*473 _0436_
*474 _0437_
*475 _0438_
*476 _0439_
*477 _0440_
*478 _0441_
*479 _0442_
*480 _0443_
*481 _0444_
*482 _0445_
*483 _0446_
*484 _0447_
*485 _0448_
*486 _0449_
*487 _0450_
*488 _0451_
*489 _0452_
*490 _0453_
*491 _0454_
*492 _0455_
*493 _0456_
*494 _0457_
*495 _0458_
*496 _0459_
*497 _0460_
*498 _0461_
*499 _0462_
*500 _0463_
*501 _0464_
*502 _0465_
*503 _0466_
*504 _0467_
*505 _0468_
*506 _0469_
*507 _0470_
*508 _0471_
*509 _0472_
*510 _0473_
*511 _0474_
*512 _0475_
*513 _0476_
*514 _0477_
*515 _0478_
*516 _0479_
*517 _0480_
*518 _0481_
*519 _0482_
*520 _0483_
*521 _0484_
*522 _0485_
*523 _0486_
*524 _0487_
*525 _0488_
*526 _0489_
*527 _0490_
*528 _0491_
*529 _0492_
*530 _0493_
*531 _0494_
*532 _0495_
*533 _0496_
*534 _0497_
*535 _0498_
*536 _0499_
*537 _0500_
*538 _0501_
*539 _0502_
*540 _0503_
*541 _0504_
*542 _0505_
*543 _0506_
*544 _0507_
*545 _0508_
*546 _0509_
*547 _0510_
*548 _0511_
*549 _0512_
*550 _0513_
*551 _0514_
*552 _0515_
*553 _0516_
*554 _0517_
*555 _0518_
*556 _0519_
*557 _0520_
*558 _0521_
*559 _0522_
*560 _0523_
*561 _0524_
*562 _0525_
*563 _0526_
*564 _0527_
*565 _0528_
*566 _0529_
*567 _0530_
*568 _0531_
*569 _0532_
*570 _0533_
*571 _0534_
*572 _0535_
*573 _0536_
*574 _0537_
*575 _0538_
*576 _0539_
*577 _0540_
*578 _0541_
*579 _0542_
*580 _0543_
*581 _0544_
*582 _0545_
*583 _0546_
*584 _0547_
*585 _0548_
*586 _0549_
*587 _0550_
*588 _0551_
*589 _0552_
*590 _0553_
*591 _0554_
*592 _0555_
*593 _0556_
*594 _0557_
*595 _0558_
*596 _0559_
*597 _0560_
*598 _0561_
*599 _0562_
*600 _0563_
*601 _0564_
*602 _0565_
*603 _0566_
*604 _0567_
*605 _0568_
*606 _0569_
*607 _0570_
*608 _0571_
*609 _0572_
*610 _0573_
*611 _0574_
*612 _0575_
*613 _0576_
*614 _0577_
*615 _0578_
*616 _0579_
*617 _0580_
*618 _0581_
*619 _0582_
*620 _0583_
*621 _0584_
*622 _0585_
*623 _0586_
*624 _0587_
*625 _0588_
*626 _0589_
*627 _0590_
*628 _0591_
*629 _0592_
*630 _0593_
*631 _0594_
*632 _0595_
*633 _0596_
*634 _0597_
*635 _0598_
*636 _0599_
*637 _0600_
*638 _0601_
*639 _0602_
*640 _0603_
*641 _0604_
*642 _0605_
*643 _0606_
*644 _0607_
*645 _0608_
*646 _0609_
*647 _0610_
*648 _0611_
*649 _0612_
*650 _0613_
*651 _0614_
*652 _0615_
*653 _0616_
*654 _0617_
*655 _0618_
*656 _0619_
*657 _0620_
*658 _0621_
*659 _0622_
*660 _0623_
*661 _0624_
*662 _0625_
*663 _0626_
*664 _0627_
*665 _0628_
*666 _0629_
*667 _0630_
*668 _0631_
*669 _0632_
*670 _0633_
*671 _0634_
*672 _0635_
*673 _0636_
*674 _0637_
*675 _0638_
*676 a0\[0\]
*677 a0\[1\]
*678 a1\[0\]
*679 a1\[1\]
*680 a2\[0\]
*681 a2\[1\]
*682 a3\[0\]
*683 a3\[1\]
*684 b0\[0\]
*685 b0\[1\]
*686 b1\[0\]
*687 b1\[1\]
*688 b2\[0\]
*689 b2\[1\]
*690 b3\[0\]
*691 b3\[1\]
*692 clknet_0_clk
*693 clknet_1_0__leaf_clk
*694 clknet_1_1__leaf_clk
*695 clknet_leaf_0_clk
*696 clknet_leaf_10_clk
*697 clknet_leaf_11_clk
*698 clknet_leaf_12_clk
*699 clknet_leaf_13_clk
*700 clknet_leaf_14_clk
*701 clknet_leaf_15_clk
*702 clknet_leaf_16_clk
*703 clknet_leaf_17_clk
*704 clknet_leaf_18_clk
*705 clknet_leaf_19_clk
*706 clknet_leaf_1_clk
*707 clknet_leaf_20_clk
*708 clknet_leaf_21_clk
*709 clknet_leaf_22_clk
*710 clknet_leaf_2_clk
*711 clknet_leaf_3_clk
*712 clknet_leaf_4_clk
*713 clknet_leaf_5_clk
*714 clknet_leaf_6_clk
*715 clknet_leaf_7_clk
*716 clknet_leaf_8_clk
*717 clknet_leaf_9_clk
*718 g1_4\[0\]
*719 g1_4\[1\]
*720 g1_4\[2\]
*721 g1_4\[3\]
*722 g1_4\[4\]
*723 g1_5\[0\]
*724 g1_5\[1\]
*725 g1_5\[2\]
*726 g1_5\[3\]
*727 g1_5\[4\]
*728 g2_4\[0\]
*729 g2_4\[1\]
*730 g2_4\[2\]
*731 g2_4\[3\]
*732 g2_4\[4\]
*733 g2_4\[5\]
*734 g2_5\[0\]
*735 g2_5\[1\]
*736 g2_5\[2\]
*737 g2_5\[3\]
*738 g2_5\[4\]
*739 g2_5\[5\]
*740 g3_5\[0\]
*741 g3_5\[1\]
*742 g3_5\[2\]
*743 g3_5\[3\]
*744 g3_5\[4\]
*745 g3_5\[5\]
*746 g4_5\[0\]
*747 g4_5\[1\]
*748 g4_5\[2\]
*749 g4_5\[3\]
*750 g4_5\[4\]
*751 g4_5\[5\]
*752 g5_5\[0\]
*753 g5_5\[1\]
*754 g5_5\[2\]
*755 g5_5\[3\]
*756 g5_5\[4\]
*757 mid_8\[0\]
*758 mid_8\[10\]
*759 mid_8\[11\]
*760 mid_8\[12\]
*761 mid_8\[13\]
*762 mid_8\[1\]
*763 mid_8\[2\]
*764 mid_8\[3\]
*765 mid_8\[4\]
*766 mid_8\[5\]
*767 mid_8\[6\]
*768 mid_8\[7\]
*769 mid_8\[8\]
*770 mid_8\[9\]
*771 net1
*772 net10
*773 net100
*774 net101
*775 net102
*776 net103
*777 net104
*778 net105
*779 net106
*780 net107
*781 net108
*782 net109
*783 net11
*784 net110
*785 net111
*786 net112
*787 net113
*788 net114
*789 net115
*790 net116
*791 net117
*792 net118
*793 net119
*794 net12
*795 net120
*796 net121
*797 net122
*798 net123
*799 net124
*800 net125
*801 net126
*802 net127
*803 net128
*804 net129
*805 net13
*806 net130
*807 net131
*808 net132
*809 net133
*810 net134
*811 net135
*812 net136
*813 net137
*814 net138
*815 net139
*816 net14
*817 net140
*818 net141
*819 net142
*820 net143
*821 net144
*822 net145
*823 net146
*824 net147
*825 net148
*826 net149
*827 net15
*828 net150
*829 net151
*830 net152
*831 net153
*832 net154
*833 net155
*834 net156
*835 net157
*836 net158
*837 net159
*838 net16
*839 net160
*840 net161
*841 net162
*842 net163
*843 net164
*844 net165
*845 net166
*846 net167
*847 net168
*848 net169
*849 net17
*850 net170
*851 net171
*852 net172
*853 net173
*854 net174
*855 net175
*856 net176
*857 net177
*858 net178
*859 net179
*860 net18
*861 net180
*862 net181
*863 net182
*864 net183
*865 net184
*866 net185
*867 net186
*868 net187
*869 net188
*870 net189
*871 net19
*872 net190
*873 net191
*874 net192
*875 net193
*876 net194
*877 net195
*878 net196
*879 net197
*880 net198
*881 net199
*882 net2
*883 net20
*884 net200
*885 net201
*886 net202
*887 net203
*888 net204
*889 net205
*890 net206
*891 net207
*892 net208
*893 net209
*894 net21
*895 net210
*896 net211
*897 net212
*898 net213
*899 net214
*900 net215
*901 net216
*902 net217
*903 net218
*904 net219
*905 net22
*906 net220
*907 net221
*908 net222
*909 net223
*910 net224
*911 net225
*912 net226
*913 net227
*914 net228
*915 net229
*916 net23
*917 net230
*918 net231
*919 net232
*920 net233
*921 net234
*922 net24
*923 net25
*924 net26
*925 net27
*926 net28
*927 net29
*928 net3
*929 net30
*930 net31
*931 net32
*932 net33
*933 net34
*934 net35
*935 net36
*936 net37
*937 net38
*938 net39
*939 net4
*940 net40
*941 net41
*942 net42
*943 net43
*944 net44
*945 net45
*946 net46
*947 net47
*948 net48
*949 net49
*950 net5
*951 net50
*952 net51
*953 net52
*954 net53
*955 net54
*956 net55
*957 net56
*958 net57
*959 net58
*960 net59
*961 net6
*962 net60
*963 net61
*964 net62
*965 net63
*966 net64
*967 net65
*968 net66
*969 net67
*970 net68
*971 net69
*972 net7
*973 net70
*974 net71
*975 net72
*976 net73
*977 net74
*978 net75
*979 net78
*980 net79
*981 net8
*982 net80
*983 net81
*984 net82
*985 net84
*986 net85
*987 net9
*988 net91
*989 net97
*990 net98
*991 net99
*992 part0_6\[0\]
*993 part0_6\[1\]
*994 part0_6\[2\]
*995 part0_6\[3\]
*996 part0_6\[4\]
*997 part0_6\[5\]
*998 part0_6\[6\]
*999 part0_6\[7\]
*1000 part0_7\[0\]
*1001 part0_7\[1\]
*1002 part0_7\[2\]
*1003 part0_7\[3\]
*1004 part0_7\[4\]
*1005 part0_7\[5\]
*1006 part0_7\[6\]
*1007 part0_7\[7\]
*1008 part1_6\[10\]
*1009 part1_6\[11\]
*1010 part1_6\[12\]
*1011 part1_6\[4\]
*1012 part1_6\[5\]
*1013 part1_6\[6\]
*1014 part1_6\[7\]
*1015 part1_6\[8\]
*1016 part1_6\[9\]
*1017 part1_7\[10\]
*1018 part1_7\[11\]
*1019 part1_7\[12\]
*1020 part1_7\[4\]
*1021 part1_7\[5\]
*1022 part1_7\[6\]
*1023 part1_7\[7\]
*1024 part1_7\[8\]
*1025 part1_7\[9\]
*1026 part2_7\[10\]
*1027 part2_7\[11\]
*1028 part2_7\[12\]
*1029 part2_7\[13\]
*1030 part2_7\[14\]
*1031 part2_7\[15\]
*1032 part2_7\[8\]
*1033 part2_7\[9\]
*1034 part2_8\[10\]
*1035 part2_8\[11\]
*1036 part2_8\[12\]
*1037 part2_8\[13\]
*1038 part2_8\[14\]
*1039 part2_8\[15\]
*1040 part2_8\[8\]
*1041 part2_8\[9\]
*1042 pp2\[0\]\[0\]
*1043 pp2\[0\]\[1\]
*1044 pp2\[0\]\[2\]
*1045 pp2\[0\]\[3\]
*1046 pp2\[1\]\[0\]
*1047 pp2\[1\]\[1\]
*1048 pp2\[1\]\[2\]
*1049 pp2\[1\]\[3\]
*1050 pp2\[2\]\[0\]
*1051 pp2\[2\]\[1\]
*1052 pp2\[2\]\[2\]
*1053 pp2\[2\]\[3\]
*1054 pp2\[3\]\[0\]
*1055 pp2\[3\]\[1\]
*1056 pp2\[3\]\[2\]
*1057 pp2\[3\]\[3\]
*1058 pp2\[4\]\[0\]
*1059 pp2\[4\]\[1\]
*1060 pp2\[4\]\[2\]
*1061 pp2\[4\]\[3\]
*1062 pp2\[5\]\[0\]
*1063 pp2\[5\]\[1\]
*1064 pp2\[5\]\[2\]
*1065 pp2\[5\]\[3\]
*1066 pp2\[6\]\[0\]
*1067 pp2\[6\]\[1\]
*1068 pp2\[6\]\[2\]
*1069 pp2\[6\]\[3\]
*1070 pp2\[7\]\[0\]
*1071 pp2\[7\]\[1\]
*1072 pp2\[7\]\[2\]
*1073 pp2\[7\]\[3\]
*1074 pp3\[0\]\[0\]
*1075 pp3\[0\]\[1\]
*1076 pp3\[0\]\[2\]
*1077 pp3\[0\]\[3\]
*1078 pp3\[10\]\[0\]
*1079 pp3\[10\]\[1\]
*1080 pp3\[10\]\[2\]
*1081 pp3\[10\]\[3\]
*1082 pp3\[11\]\[0\]
*1083 pp3\[11\]\[1\]
*1084 pp3\[11\]\[2\]
*1085 pp3\[11\]\[3\]
*1086 pp3\[12\]\[0\]
*1087 pp3\[12\]\[1\]
*1088 pp3\[12\]\[2\]
*1089 pp3\[12\]\[3\]
*1090 pp3\[13\]\[0\]
*1091 pp3\[13\]\[1\]
*1092 pp3\[13\]\[2\]
*1093 pp3\[13\]\[3\]
*1094 pp3\[14\]\[0\]
*1095 pp3\[14\]\[1\]
*1096 pp3\[14\]\[2\]
*1097 pp3\[14\]\[3\]
*1098 pp3\[15\]\[0\]
*1099 pp3\[15\]\[1\]
*1100 pp3\[15\]\[2\]
*1101 pp3\[15\]\[3\]
*1102 pp3\[1\]\[0\]
*1103 pp3\[1\]\[1\]
*1104 pp3\[1\]\[2\]
*1105 pp3\[1\]\[3\]
*1106 pp3\[2\]\[0\]
*1107 pp3\[2\]\[1\]
*1108 pp3\[2\]\[2\]
*1109 pp3\[2\]\[3\]
*1110 pp3\[3\]\[0\]
*1111 pp3\[3\]\[1\]
*1112 pp3\[3\]\[2\]
*1113 pp3\[3\]\[3\]
*1114 pp3\[4\]\[0\]
*1115 pp3\[4\]\[1\]
*1116 pp3\[4\]\[2\]
*1117 pp3\[4\]\[3\]
*1118 pp3\[5\]\[0\]
*1119 pp3\[5\]\[1\]
*1120 pp3\[5\]\[2\]
*1121 pp3\[5\]\[3\]
*1122 pp3\[6\]\[0\]
*1123 pp3\[6\]\[1\]
*1124 pp3\[6\]\[2\]
*1125 pp3\[6\]\[3\]
*1126 pp3\[7\]\[0\]
*1127 pp3\[7\]\[1\]
*1128 pp3\[7\]\[2\]
*1129 pp3\[7\]\[3\]
*1130 pp3\[8\]\[0\]
*1131 pp3\[8\]\[1\]
*1132 pp3\[8\]\[2\]
*1133 pp3\[8\]\[3\]
*1134 pp3\[9\]\[0\]
*1135 pp3\[9\]\[1\]
*1136 pp3\[9\]\[2\]
*1137 pp3\[9\]\[3\]
*1138 sum_9\[0\]
*1139 sum_9\[10\]
*1140 sum_9\[11\]
*1141 sum_9\[12\]
*1142 sum_9\[13\]
*1143 sum_9\[14\]
*1144 sum_9\[15\]
*1145 sum_9\[1\]
*1146 sum_9\[2\]
*1147 sum_9\[3\]
*1148 sum_9\[4\]
*1149 sum_9\[5\]
*1150 sum_9\[6\]
*1151 sum_9\[7\]
*1152 sum_9\[8\]
*1153 sum_9\[9\]
*1154 FILLER_0_104
*1155 FILLER_0_113
*1156 FILLER_0_125
*1157 FILLER_0_137
*1158 FILLER_0_141
*1159 FILLER_0_145
*1160 FILLER_0_15
*1161 FILLER_0_165
*1162 FILLER_0_189
*1163 FILLER_0_195
*1164 FILLER_0_200
*1165 FILLER_0_223
*1166 FILLER_0_236
*1167 FILLER_0_248
*1168 FILLER_0_264
*1169 FILLER_0_27
*1170 FILLER_0_276
*1171 FILLER_0_281
*1172 FILLER_0_287
*1173 FILLER_0_29
*1174 FILLER_0_299
*1175 FILLER_0_3
*1176 FILLER_0_307
*1177 FILLER_0_309
*1178 FILLER_0_41
*1179 FILLER_0_53
*1180 FILLER_0_57
*1181 FILLER_0_69
*1182 FILLER_0_77
*1183 FILLER_0_82
*1184 FILLER_0_85
*1185 FILLER_0_97
*1186 FILLER_10_100
*1187 FILLER_10_122
*1188 FILLER_10_149
*1189 FILLER_10_161
*1190 FILLER_10_165
*1191 FILLER_10_177
*1192 FILLER_10_200
*1193 FILLER_10_223
*1194 FILLER_10_239
*1195 FILLER_10_251
*1196 FILLER_10_253
*1197 FILLER_10_26
*1198 FILLER_10_265
*1199 FILLER_10_277
*1200 FILLER_10_289
*1201 FILLER_10_301
*1202 FILLER_10_307
*1203 FILLER_10_309
*1204 FILLER_10_40
*1205 FILLER_10_52
*1206 FILLER_10_73
*1207 FILLER_10_83
*1208 FILLER_10_85
*1209 FILLER_10_92
*1210 FILLER_11_100
*1211 FILLER_11_113
*1212 FILLER_11_121
*1213 FILLER_11_14
*1214 FILLER_11_164
*1215 FILLER_11_200
*1216 FILLER_11_211
*1217 FILLER_11_223
*1218 FILLER_11_245
*1219 FILLER_11_257
*1220 FILLER_11_269
*1221 FILLER_11_277
*1222 FILLER_11_281
*1223 FILLER_11_293
*1224 FILLER_11_305
*1225 FILLER_11_38
*1226 FILLER_11_53
*1227 FILLER_11_57
*1228 FILLER_11_62
*1229 FILLER_11_67
*1230 FILLER_11_73
*1231 FILLER_12_105
*1232 FILLER_12_110
*1233 FILLER_12_122
*1234 FILLER_12_134
*1235 FILLER_12_150
*1236 FILLER_12_158
*1237 FILLER_12_179
*1238 FILLER_12_191
*1239 FILLER_12_195
*1240 FILLER_12_217
*1241 FILLER_12_23
*1242 FILLER_12_241
*1243 FILLER_12_249
*1244 FILLER_12_253
*1245 FILLER_12_265
*1246 FILLER_12_27
*1247 FILLER_12_277
*1248 FILLER_12_289
*1249 FILLER_12_301
*1250 FILLER_12_307
*1251 FILLER_12_309
*1252 FILLER_12_313
*1253 FILLER_12_32
*1254 FILLER_12_38
*1255 FILLER_12_85
*1256 FILLER_12_97
*1257 FILLER_13_120
*1258 FILLER_13_128
*1259 FILLER_13_151
*1260 FILLER_13_155
*1261 FILLER_13_164
*1262 FILLER_13_178
*1263 FILLER_13_186
*1264 FILLER_13_191
*1265 FILLER_13_200
*1266 FILLER_13_214
*1267 FILLER_13_222
*1268 FILLER_13_239
*1269 FILLER_13_251
*1270 FILLER_13_26
*1271 FILLER_13_263
*1272 FILLER_13_272
*1273 FILLER_13_281
*1274 FILLER_13_293
*1275 FILLER_13_57
*1276 FILLER_13_73
*1277 FILLER_13_85
*1278 FILLER_13_95
*1279 FILLER_14_105
*1280 FILLER_14_109
*1281 FILLER_14_118
*1282 FILLER_14_126
*1283 FILLER_14_135
*1284 FILLER_14_139
*1285 FILLER_14_141
*1286 FILLER_14_153
*1287 FILLER_14_174
*1288 FILLER_14_197
*1289 FILLER_14_219
*1290 FILLER_14_241
*1291 FILLER_14_251
*1292 FILLER_14_278
*1293 FILLER_14_29
*1294 FILLER_14_3
*1295 FILLER_14_307
*1296 FILLER_14_312
*1297 FILLER_14_40
*1298 FILLER_14_47
*1299 FILLER_14_82
*1300 FILLER_15_113
*1301 FILLER_15_117
*1302 FILLER_15_132
*1303 FILLER_15_159
*1304 FILLER_15_197
*1305 FILLER_15_214
*1306 FILLER_15_225
*1307 FILLER_15_261
*1308 FILLER_15_269
*1309 FILLER_15_273
*1310 FILLER_15_279
*1311 FILLER_15_292
*1312 FILLER_15_296
*1313 FILLER_15_49
*1314 FILLER_15_55
*1315 FILLER_15_57
*1316 FILLER_16_105
*1317 FILLER_16_123
*1318 FILLER_16_141
*1319 FILLER_16_195
*1320 FILLER_16_244
*1321 FILLER_16_25
*1322 FILLER_16_256
*1323 FILLER_16_3
*1324 FILLER_16_307
*1325 FILLER_16_309
*1326 FILLER_16_40
*1327 FILLER_16_62
*1328 FILLER_16_74
*1329 FILLER_16_82
*1330 FILLER_17_105
*1331 FILLER_17_11
*1332 FILLER_17_111
*1333 FILLER_17_113
*1334 FILLER_17_123
*1335 FILLER_17_148
*1336 FILLER_17_160
*1337 FILLER_17_189
*1338 FILLER_17_198
*1339 FILLER_17_210
*1340 FILLER_17_222
*1341 FILLER_17_233
*1342 FILLER_17_245
*1343 FILLER_17_257
*1344 FILLER_17_269
*1345 FILLER_17_277
*1346 FILLER_17_296
*1347 FILLER_17_308
*1348 FILLER_17_316
*1349 FILLER_17_39
*1350 FILLER_17_48
*1351 FILLER_17_57
*1352 FILLER_17_81
*1353 FILLER_18_117
*1354 FILLER_18_13
*1355 FILLER_18_138
*1356 FILLER_18_146
*1357 FILLER_18_179
*1358 FILLER_18_189
*1359 FILLER_18_220
*1360 FILLER_18_230
*1361 FILLER_18_242
*1362 FILLER_18_25
*1363 FILLER_18_250
*1364 FILLER_18_253
*1365 FILLER_18_265
*1366 FILLER_18_277
*1367 FILLER_18_29
*1368 FILLER_18_294
*1369 FILLER_18_306
*1370 FILLER_18_309
*1371 FILLER_18_33
*1372 FILLER_18_37
*1373 FILLER_18_6
*1374 FILLER_18_69
*1375 FILLER_18_73
*1376 FILLER_18_94
*1377 FILLER_19_11
*1378 FILLER_19_125
*1379 FILLER_19_15
*1380 FILLER_19_156
*1381 FILLER_19_192
*1382 FILLER_19_217
*1383 FILLER_19_250
*1384 FILLER_19_262
*1385 FILLER_19_27
*1386 FILLER_19_274
*1387 FILLER_19_281
*1388 FILLER_19_293
*1389 FILLER_19_3
*1390 FILLER_19_39
*1391 FILLER_19_51
*1392 FILLER_19_57
*1393 FILLER_19_63
*1394 FILLER_1_113
*1395 FILLER_1_15
*1396 FILLER_1_220
*1397 FILLER_1_265
*1398 FILLER_1_27
*1399 FILLER_1_271
*1400 FILLER_1_275
*1401 FILLER_1_279
*1402 FILLER_1_281
*1403 FILLER_1_293
*1404 FILLER_1_3
*1405 FILLER_1_39
*1406 FILLER_1_51
*1407 FILLER_1_55
*1408 FILLER_1_57
*1409 FILLER_20_109
*1410 FILLER_20_121
*1411 FILLER_20_130
*1412 FILLER_20_136
*1413 FILLER_20_141
*1414 FILLER_20_182
*1415 FILLER_20_194
*1416 FILLER_20_197
*1417 FILLER_20_209
*1418 FILLER_20_223
*1419 FILLER_20_259
*1420 FILLER_20_265
*1421 FILLER_20_269
*1422 FILLER_20_277
*1423 FILLER_20_287
*1424 FILLER_20_291
*1425 FILLER_20_299
*1426 FILLER_20_309
*1427 FILLER_20_6
*1428 FILLER_20_71
*1429 FILLER_20_82
*1430 FILLER_20_92
*1431 FILLER_20_97
*1432 FILLER_21_109
*1433 FILLER_21_113
*1434 FILLER_21_125
*1435 FILLER_21_137
*1436 FILLER_21_14
*1437 FILLER_21_159
*1438 FILLER_21_189
*1439 FILLER_21_197
*1440 FILLER_21_22
*1441 FILLER_21_221
*1442 FILLER_21_254
*1443 FILLER_21_275
*1444 FILLER_21_279
*1445 FILLER_21_301
*1446 FILLER_21_309
*1447 FILLER_21_53
*1448 FILLER_21_57
*1449 FILLER_21_71
*1450 FILLER_22_102
*1451 FILLER_22_125
*1452 FILLER_22_133
*1453 FILLER_22_138
*1454 FILLER_22_141
*1455 FILLER_22_153
*1456 FILLER_22_178
*1457 FILLER_22_184
*1458 FILLER_22_195
*1459 FILLER_22_213
*1460 FILLER_22_234
*1461 FILLER_22_246
*1462 FILLER_22_253
*1463 FILLER_22_26
*1464 FILLER_22_265
*1465 FILLER_22_277
*1466 FILLER_22_289
*1467 FILLER_22_29
*1468 FILLER_22_301
*1469 FILLER_22_307
*1470 FILLER_22_309
*1471 FILLER_22_41
*1472 FILLER_22_53
*1473 FILLER_22_65
*1474 FILLER_22_73
*1475 FILLER_22_81
*1476 FILLER_22_85
*1477 FILLER_22_97
*1478 FILLER_23_100
*1479 FILLER_23_122
*1480 FILLER_23_144
*1481 FILLER_23_148
*1482 FILLER_23_160
*1483 FILLER_23_178
*1484 FILLER_23_214
*1485 FILLER_23_222
*1486 FILLER_23_236
*1487 FILLER_23_248
*1488 FILLER_23_26
*1489 FILLER_23_260
*1490 FILLER_23_272
*1491 FILLER_23_281
*1492 FILLER_23_293
*1493 FILLER_23_305
*1494 FILLER_23_31
*1495 FILLER_23_35
*1496 FILLER_23_60
*1497 FILLER_23_91
*1498 FILLER_24_138
*1499 FILLER_24_14
*1500 FILLER_24_141
*1501 FILLER_24_157
*1502 FILLER_24_165
*1503 FILLER_24_171
*1504 FILLER_24_177
*1505 FILLER_24_190
*1506 FILLER_24_220
*1507 FILLER_24_224
*1508 FILLER_24_228
*1509 FILLER_24_240
*1510 FILLER_24_253
*1511 FILLER_24_26
*1512 FILLER_24_265
*1513 FILLER_24_277
*1514 FILLER_24_289
*1515 FILLER_24_29
*1516 FILLER_24_301
*1517 FILLER_24_307
*1518 FILLER_24_309
*1519 FILLER_24_52
*1520 FILLER_24_73
*1521 FILLER_24_85
*1522 FILLER_25_102
*1523 FILLER_25_110
*1524 FILLER_25_113
*1525 FILLER_25_125
*1526 FILLER_25_132
*1527 FILLER_25_14
*1528 FILLER_25_140
*1529 FILLER_25_144
*1530 FILLER_25_152
*1531 FILLER_25_160
*1532 FILLER_25_189
*1533 FILLER_25_201
*1534 FILLER_25_223
*1535 FILLER_25_225
*1536 FILLER_25_233
*1537 FILLER_25_244
*1538 FILLER_25_256
*1539 FILLER_25_264
*1540 FILLER_25_270
*1541 FILLER_25_278
*1542 FILLER_25_281
*1543 FILLER_25_287
*1544 FILLER_25_291
*1545 FILLER_25_49
*1546 FILLER_25_55
*1547 FILLER_25_6
*1548 FILLER_25_65
*1549 FILLER_26_114
*1550 FILLER_26_131
*1551 FILLER_26_137
*1552 FILLER_26_171
*1553 FILLER_26_178
*1554 FILLER_26_187
*1555 FILLER_26_194
*1556 FILLER_26_197
*1557 FILLER_26_205
*1558 FILLER_26_235
*1559 FILLER_26_241
*1560 FILLER_26_249
*1561 FILLER_26_253
*1562 FILLER_26_276
*1563 FILLER_26_297
*1564 FILLER_26_3
*1565 FILLER_26_306
*1566 FILLER_26_309
*1567 FILLER_26_52
*1568 FILLER_26_64
*1569 FILLER_26_7
*1570 FILLER_26_76
*1571 FILLER_26_83
*1572 FILLER_26_85
*1573 FILLER_26_89
*1574 FILLER_27_119
*1575 FILLER_27_133
*1576 FILLER_27_165
*1577 FILLER_27_189
*1578 FILLER_27_197
*1579 FILLER_27_20
*1580 FILLER_27_223
*1581 FILLER_27_245
*1582 FILLER_27_254
*1583 FILLER_27_266
*1584 FILLER_27_278
*1585 FILLER_27_289
*1586 FILLER_27_3
*1587 FILLER_27_303
*1588 FILLER_27_315
*1589 FILLER_27_50
*1590 FILLER_27_64
*1591 FILLER_27_68
*1592 FILLER_27_89
*1593 FILLER_28_101
*1594 FILLER_28_125
*1595 FILLER_28_158
*1596 FILLER_28_179
*1597 FILLER_28_185
*1598 FILLER_28_193
*1599 FILLER_28_204
*1600 FILLER_28_212
*1601 FILLER_28_244
*1602 FILLER_28_253
*1603 FILLER_28_26
*1604 FILLER_28_265
*1605 FILLER_28_277
*1606 FILLER_28_289
*1607 FILLER_28_3
*1608 FILLER_28_301
*1609 FILLER_28_307
*1610 FILLER_28_309
*1611 FILLER_28_51
*1612 FILLER_28_81
*1613 FILLER_28_85
*1614 FILLER_28_94
*1615 FILLER_29_100
*1616 FILLER_29_108
*1617 FILLER_29_132
*1618 FILLER_29_143
*1619 FILLER_29_161
*1620 FILLER_29_167
*1621 FILLER_29_169
*1622 FILLER_29_173
*1623 FILLER_29_184
*1624 FILLER_29_193
*1625 FILLER_29_231
*1626 FILLER_29_254
*1627 FILLER_29_263
*1628 FILLER_29_275
*1629 FILLER_29_279
*1630 FILLER_29_281
*1631 FILLER_29_293
*1632 FILLER_29_3
*1633 FILLER_29_305
*1634 FILLER_29_57
*1635 FILLER_29_72
*1636 FILLER_29_76
*1637 FILLER_29_9
*1638 FILLER_2_134
*1639 FILLER_2_141
*1640 FILLER_2_15
*1641 FILLER_2_153
*1642 FILLER_2_186
*1643 FILLER_2_194
*1644 FILLER_2_205
*1645 FILLER_2_217
*1646 FILLER_2_229
*1647 FILLER_2_241
*1648 FILLER_2_249
*1649 FILLER_2_253
*1650 FILLER_2_27
*1651 FILLER_2_281
*1652 FILLER_2_285
*1653 FILLER_2_289
*1654 FILLER_2_29
*1655 FILLER_2_297
*1656 FILLER_2_3
*1657 FILLER_2_312
*1658 FILLER_2_41
*1659 FILLER_2_80
*1660 FILLER_2_85
*1661 FILLER_2_97
*1662 FILLER_30_106
*1663 FILLER_30_114
*1664 FILLER_30_121
*1665 FILLER_30_126
*1666 FILLER_30_138
*1667 FILLER_30_141
*1668 FILLER_30_155
*1669 FILLER_30_167
*1670 FILLER_30_179
*1671 FILLER_30_197
*1672 FILLER_30_209
*1673 FILLER_30_233
*1674 FILLER_30_251
*1675 FILLER_30_26
*1676 FILLER_30_273
*1677 FILLER_30_285
*1678 FILLER_30_297
*1679 FILLER_30_3
*1680 FILLER_30_305
*1681 FILLER_30_309
*1682 FILLER_30_32
*1683 FILLER_30_44
*1684 FILLER_30_65
*1685 FILLER_30_75
*1686 FILLER_30_80
*1687 FILLER_30_85
*1688 FILLER_30_89
*1689 FILLER_31_110
*1690 FILLER_31_140
*1691 FILLER_31_152
*1692 FILLER_31_164
*1693 FILLER_31_169
*1694 FILLER_31_174
*1695 FILLER_31_178
*1696 FILLER_31_186
*1697 FILLER_31_190
*1698 FILLER_31_198
*1699 FILLER_31_209
*1700 FILLER_31_215
*1701 FILLER_31_228
*1702 FILLER_31_263
*1703 FILLER_31_275
*1704 FILLER_31_279
*1705 FILLER_31_281
*1706 FILLER_31_29
*1707 FILLER_31_293
*1708 FILLER_31_3
*1709 FILLER_31_52
*1710 FILLER_31_57
*1711 FILLER_31_86
*1712 FILLER_31_9
*1713 FILLER_31_98
*1714 FILLER_32_105
*1715 FILLER_32_116
*1716 FILLER_32_132
*1717 FILLER_32_136
*1718 FILLER_32_146
*1719 FILLER_32_155
*1720 FILLER_32_159
*1721 FILLER_32_180
*1722 FILLER_32_195
*1723 FILLER_32_246
*1724 FILLER_32_253
*1725 FILLER_32_257
*1726 FILLER_32_269
*1727 FILLER_32_281
*1728 FILLER_32_289
*1729 FILLER_32_294
*1730 FILLER_32_3
*1731 FILLER_32_309
*1732 FILLER_32_32
*1733 FILLER_32_58
*1734 FILLER_32_7
*1735 FILLER_32_75
*1736 FILLER_32_81
*1737 FILLER_32_85
*1738 FILLER_32_97
*1739 FILLER_33_110
*1740 FILLER_33_113
*1741 FILLER_33_121
*1742 FILLER_33_126
*1743 FILLER_33_138
*1744 FILLER_33_15
*1745 FILLER_33_198
*1746 FILLER_33_202
*1747 FILLER_33_206
*1748 FILLER_33_217
*1749 FILLER_33_223
*1750 FILLER_33_236
*1751 FILLER_33_240
*1752 FILLER_33_261
*1753 FILLER_33_272
*1754 FILLER_33_279
*1755 FILLER_33_3
*1756 FILLER_33_301
*1757 FILLER_33_312
*1758 FILLER_33_316
*1759 FILLER_33_57
*1760 FILLER_33_66
*1761 FILLER_33_98
*1762 FILLER_34_103
*1763 FILLER_34_13
*1764 FILLER_34_131
*1765 FILLER_34_135
*1766 FILLER_34_139
*1767 FILLER_34_141
*1768 FILLER_34_148
*1769 FILLER_34_160
*1770 FILLER_34_167
*1771 FILLER_34_171
*1772 FILLER_34_189
*1773 FILLER_34_195
*1774 FILLER_34_24
*1775 FILLER_34_248
*1776 FILLER_34_256
*1777 FILLER_34_3
*1778 FILLER_34_312
*1779 FILLER_34_54
*1780 FILLER_34_66
*1781 FILLER_34_78
*1782 FILLER_34_85
*1783 FILLER_34_89
*1784 FILLER_34_9
*1785 FILLER_35_107
*1786 FILLER_35_111
*1787 FILLER_35_113
*1788 FILLER_35_117
*1789 FILLER_35_121
*1790 FILLER_35_142
*1791 FILLER_35_148
*1792 FILLER_35_160
*1793 FILLER_35_169
*1794 FILLER_35_183
*1795 FILLER_35_195
*1796 FILLER_35_199
*1797 FILLER_35_223
*1798 FILLER_35_251
*1799 FILLER_35_264
*1800 FILLER_35_272
*1801 FILLER_35_277
*1802 FILLER_35_295
*1803 FILLER_35_54
*1804 FILLER_35_60
*1805 FILLER_35_72
*1806 FILLER_35_84
*1807 FILLER_36_131
*1808 FILLER_36_139
*1809 FILLER_36_14
*1810 FILLER_36_151
*1811 FILLER_36_157
*1812 FILLER_36_165
*1813 FILLER_36_189
*1814 FILLER_36_194
*1815 FILLER_36_205
*1816 FILLER_36_22
*1817 FILLER_36_227
*1818 FILLER_36_231
*1819 FILLER_36_256
*1820 FILLER_36_260
*1821 FILLER_36_266
*1822 FILLER_36_276
*1823 FILLER_36_294
*1824 FILLER_36_306
*1825 FILLER_36_309
*1826 FILLER_36_39
*1827 FILLER_36_63
*1828 FILLER_36_88
*1829 FILLER_36_96
*1830 FILLER_37_100
*1831 FILLER_37_108
*1832 FILLER_37_124
*1833 FILLER_37_136
*1834 FILLER_37_142
*1835 FILLER_37_146
*1836 FILLER_37_150
*1837 FILLER_37_163
*1838 FILLER_37_167
*1839 FILLER_37_178
*1840 FILLER_37_223
*1841 FILLER_37_254
*1842 FILLER_37_278
*1843 FILLER_37_3
*1844 FILLER_37_301
*1845 FILLER_37_309
*1846 FILLER_37_49
*1847 FILLER_37_55
*1848 FILLER_37_57
*1849 FILLER_37_75
*1850 FILLER_37_87
*1851 FILLER_37_9
*1852 FILLER_37_92
*1853 FILLER_38_112
*1854 FILLER_38_124
*1855 FILLER_38_139
*1856 FILLER_38_141
*1857 FILLER_38_153
*1858 FILLER_38_181
*1859 FILLER_38_190
*1860 FILLER_38_197
*1861 FILLER_38_209
*1862 FILLER_38_249
*1863 FILLER_38_253
*1864 FILLER_38_259
*1865 FILLER_38_26
*1866 FILLER_38_271
*1867 FILLER_38_275
*1868 FILLER_38_283
*1869 FILLER_38_29
*1870 FILLER_38_295
*1871 FILLER_38_299
*1872 FILLER_38_3
*1873 FILLER_38_309
*1874 FILLER_38_313
*1875 FILLER_38_71
*1876 FILLER_38_83
*1877 FILLER_38_9
*1878 FILLER_39_108
*1879 FILLER_39_11
*1880 FILLER_39_113
*1881 FILLER_39_121
*1882 FILLER_39_135