*SPEF "ieee 1481-1999"
*DESIGN "mult"
*DATE "23:28:17 Monday November 24, 2025"
*VENDOR "The OpenROAD Project"
*PROGRAM "OpenROAD"
*VERSION "edf00dff99f6c40d67a30c0e22a8191c5d2ed9d6"
*DESIGN_FLOW "NAME_SCOPE LOCAL" "PIN_CAP NONE"
*DIVIDER /
*DELIMITER :
*BUS_DELIMITER []
*T_UNIT 1 NS
*C_UNIT 1 PF
*R_UNIT 1 OHM
*L_UNIT 1 HENRY

*NAME_MAP
*3 a[0]
*4 a[1]
*5 a[2]
*6 a[3]
*7 a[4]
*8 a[5]
*9 a[6]
*10 a[7]
*11 b[0]
*12 b[1]
*13 b[2]
*14 b[3]
*15 b[4]
*16 b[5]
*17 b[6]
*18 b[7]
*19 clk
*20 product[0]
*21 product[10]
*22 product[11]
*23 product[12]
*24 product[13]
*25 product[14]
*26 product[15]
*27 product[1]
*28 product[2]
*29 product[3]
*30 product[4]
*31 product[5]
*32 product[6]
*33 product[7]
*34 product[8]
*35 product[9]
*36 rst
*37 _000_
*38 _001_
*39 _002_
*40 _003_
*41 _004_
*42 _005_
*43 _006_
*44 _007_
*45 _008_
*46 _009_
*47 _010_
*48 _011_
*49 _012_
*50 _013_
*51 _014_
*52 _015_
*53 _016_
*54 _017_
*55 _018_
*56 _019_
*57 _020_
*58 _021_
*59 _022_
*60 _023_
*61 _024_
*62 _025_
*63 _026_
*64 _027_
*65 _028_
*66 _029_
*67 _030_
*68 _031_
*69 _032_
*70 _033_
*71 _034_
*72 _035_
*73 _036_
*74 _037_
*75 _038_
*76 _039_
*77 _040_
*78 _041_
*79 _042_
*80 _043_
*81 _044_
*82 _045_
*83 _046_
*84 _047_
*85 _048_
*86 _049_
*87 _050_
*88 _051_
*89 _052_
*90 _053_
*91 _054_
*92 _055_
*93 _056_
*94 _057_
*95 _058_
*96 _059_
*97 _060_
*98 _061_
*99 _062_
*100 _063_
*101 _064_
*102 _065_
*103 _066_
*104 _067_
*105 _068_
*106 _069_
*107 _070_
*108 _071_
*109 _072_
*110 _073_
*111 _074_
*112 _075_
*113 _076_
*114 _077_
*115 _078_
*116 _079_
*117 _080_
*118 _081_
*119 _082_
*120 _083_
*121 _084_
*122 _085_
*123 _086_
*124 _087_
*125 _088_
*126 _089_
*127 _090_
*128 _091_
*129 _092_
*130 _093_
*131 _094_
*132 _095_
*133 _096_
*134 _097_
*135 _098_
*136 _099_
*137 _100_
*138 _101_
*139 _102_
*140 _103_
*141 _104_
*142 _105_
*143 _106_
*144 _107_
*145 _108_
*146 _109_
*147 _110_
*148 _111_
*149 _112_
*150 _113_
*151 _114_
*152 _115_
*153 _116_
*154 _117_
*155 _118_
*156 _119_
*157 _120_
*158 _121_
*159 _122_
*160 _123_
*161 _124_
*162 _125_
*163 _126_
*164 _127_
*165 _128_
*166 _129_
*167 _130_
*168 _131_
*169 _132_
*170 _133_
*171 _134_
*172 _135_
*173 _136_
*174 _137_
*175 _138_
*176 _139_
*177 _140_
*178 _141_
*179 _142_
*180 _143_
*181 _144_
*182 _145_
*183 _146_
*184 _147_
*185 _148_
*186 _149_
*187 _150_
*188 _151_
*189 _152_
*190 _153_
*191 _154_
*192 _155_
*193 _156_
*194 _157_
*195 _158_
*196 _159_
*197 _160_
*198 _161_
*199 _162_
*200 _163_
*201 _164_
*202 _165_
*203 _166_
*204 _167_
*205 _168_
*206 _169_
*207 _170_
*208 _171_
*209 _172_
*210 _173_
*211 _174_
*212 _175_
*213 _176_
*214 _177_
*215 _178_
*216 _179_
*217 _180_
*218 _181_
*219 _182_
*220 _183_
*221 _184_
*222 _185_
*223 _186_
*224 _187_
*225 _188_
*226 _189_
*227 _190_
*228 _191_
*229 _192_
*230 _193_
*231 _194_
*232 _195_
*233 _196_
*234 _197_
*235 _198_
*236 _199_
*237 _200_
*238 _201_
*239 _202_
*240 _203_
*241 _204_
*242 _205_
*243 _206_
*244 _207_
*245 _208_
*246 _209_
*247 _210_
*248 _211_
*249 _212_
*250 _213_
*251 _214_
*252 _215_
*253 _216_
*254 _217_
*255 _218_
*256 _219_
*257 _220_
*258 _221_
*259 _222_
*260 _223_
*261 _224_
*262 _225_
*263 _226_
*264 _227_
*265 _228_
*266 _229_
*267 _230_
*268 _231_
*269 _232_
*270 _233_
*271 _234_
*272 _235_
*273 _236_
*274 _237_
*275 _238_
*276 _239_
*277 _240_
*278 _241_
*279 _242_
*280 _243_
*281 _244_
*282 _245_
*283 _246_
*284 _247_
*285 _248_
*286 _249_
*287 _250_
*288 _251_
*289 _252_
*290 _253_
*291 _254_
*292 _255_
*293 _256_
*294 _257_
*295 _258_
*296 _259_
*297 _260_
*298 _261_
*299 _262_
*300 _263_
*301 _264_
*302 _265_
*303 _266_
*304 _267_
*305 _268_
*306 _269_
*307 _270_
*308 _271_
*309 _272_
*310 _273_
*311 _274_
*312 _275_
*313 _276_
*314 _277_
*315 _278_
*316 _279_
*317 _280_
*318 _281_
*319 _282_
*320 _283_
*321 _284_
*322 _285_
*323 _286_
*324 _287_
*325 _288_
*326 _289_
*327 _290_
*328 _291_
*329 _292_
*330 _293_
*331 _294_
*332 _295_
*333 _296_
*334 _297_
*335 _298_
*336 _299_
*337 _300_
*338 _301_
*339 _302_
*340 _303_
*341 _304_
*342 _305_
*343 _306_
*344 _307_
*345 _308_
*346 _309_
*347 _310_
*348 _311_
*349 _312_
*350 _313_
*351 _314_
*352 _315_
*353 _316_
*354 _317_
*355 _318_
*356 _319_
*357 _320_
*358 a_reg\[0\]
*359 a_reg\[1\]
*360 a_reg\[2\]
*361 a_reg\[3\]
*362 a_reg\[4\]
*363 a_reg\[5\]
*364 a_reg\[6\]
*365 a_reg\[7\]
*366 b_reg\[0\]
*367 b_reg\[1\]
*368 b_reg\[2\]
*369 b_reg\[3\]
*370 b_reg\[4\]
*371 b_reg\[5\]
*372 b_reg\[6\]
*373 b_reg\[7\]
*374 clknet_0_clk
*375 clknet_2_0__leaf_clk
*376 clknet_2_1__leaf_clk
*377 clknet_2_2__leaf_clk
*378 clknet_2_3__leaf_clk
*379 net1
*380 net10
*381 net11
*382 net12
*383 net13
*384 net14
*385 net15
*386 net16
*387 net17
*388 net18
*389 net19
*390 net2
*391 net20
*392 net21
*393 net22
*394 net23
*395 net24
*396 net25
*397 net26
*398 net27
*399 net28
*400 net29
*401 net3
*402 net30
*403 net31
*404 net32
*405 net33
*406 net34
*407 net35
*408 net36
*409 net37
*410 net38
*411 net39
*412 net4
*413 net40
*414 net41
*415 net42
*416 net43
*417 net44
*418 net45
*419 net46
*420 net47
*421 net48
*422 net49
*423 net5
*424 net50
*425 net51
*426 net52
*427 net53
*428 net54
*429 net55
*430 net56
*431 net57
*432 net58
*433 net59
*434 net6
*435 net60
*436 net61
*437 net62
*438 net7
*439 net8
*440 net9
*441 product_reg\[0\]
*442 product_reg\[10\]
*443 product_reg\[11\]
*444 product_reg\[12\]
*445 product_reg\[13\]
*446 product_reg\[14\]
*447 product_reg\[15\]
*448 product_reg\[1\]
*449 product_reg\[2\]
*450 product_reg\[3\]
*451 product_reg\[4\]
*452 product_reg\[5\]
*453 product_reg\[6\]
*454 product_reg\[7\]
*455 product_reg\[8\]
*456 product_reg\[9\]
*457 FILLER_0_111
*458 FILLER_0_116
*459 FILLER_0_124
*460 FILLER_0_129
*461 FILLER_0_135
*462 FILLER_0_141
*463 FILLER_0_147
*464 FILLER_0_15
*465 FILLER_0_154
*466 FILLER_0_166
*467 FILLER_0_169
*468 FILLER_0_181
*469 FILLER_0_27
*470 FILLER_0_29
*471 FILLER_0_3
*472 FILLER_0_41
*473 FILLER_0_48
*474 FILLER_0_55
*475 FILLER_0_57
*476 FILLER_0_62
*477 FILLER_0_70
*478 FILLER_0_78
*479 FILLER_0_83
*480 FILLER_10_122
*481 FILLER_10_134
*482 FILLER_10_141
*483 FILLER_10_149
*484 FILLER_10_16
*485 FILLER_10_161
*486 FILLER_10_173
*487 FILLER_10_22
*488 FILLER_10_43
*489 FILLER_10_47
*490 FILLER_10_82
*491 FILLER_10_85
*492 FILLER_10_9
*493 FILLER_11_104
*494 FILLER_11_123
*495 FILLER_11_131
*496 FILLER_11_162
*497 FILLER_11_169
*498 FILLER_11_181
*499 FILLER_11_23
*500 FILLER_11_41
*501 FILLER_11_53
*502 FILLER_11_57
*503 FILLER_11_69
*504 FILLER_11_81
*505 FILLER_11_87
*506 FILLER_12_109
*507 FILLER_12_115
*508 FILLER_12_126
*509 FILLER_12_138
*510 FILLER_12_141
*511 FILLER_12_153
*512 FILLER_12_172
*513 FILLER_12_184
*514 FILLER_12_188
*515 FILLER_12_23
*516 FILLER_12_27
*517 FILLER_12_29
*518 FILLER_12_34
*519 FILLER_12_42
*520 FILLER_12_48
*521 FILLER_12_60
*522 FILLER_12_81
*523 FILLER_12_85
*524 FILLER_12_97
*525 FILLER_13_10
*526 FILLER_13_121
*527 FILLER_13_129
*528 FILLER_13_150
*529 FILLER_13_159
*530 FILLER_13_167
*531 FILLER_13_169
*532 FILLER_13_17
*533 FILLER_13_181
*534 FILLER_13_21
*535 FILLER_13_25
*536 FILLER_13_30
*537 FILLER_13_57
*538 FILLER_13_6
*539 FILLER_13_65
*540 FILLER_13_76
*541 FILLER_13_84
*542 FILLER_13_91
*543 FILLER_13_99
*544 FILLER_14_124
*545 FILLER_14_136
*546 FILLER_14_141
*547 FILLER_14_151
*548 FILLER_14_166
*549 FILLER_14_173
*550 FILLER_14_181
*551 FILLER_14_23
*552 FILLER_14_41
*553 FILLER_14_45
*554 FILLER_14_59
*555 FILLER_14_80
*556 FILLER_14_85
*557 FILLER_14_95
*558 FILLER_15_107
*559 FILLER_15_120
*560 FILLER_15_143
*561 FILLER_15_155
*562 FILLER_15_18
*563 FILLER_15_30
*564 FILLER_15_38
*565 FILLER_15_45
*566 FILLER_15_53
*567 FILLER_15_57
*568 FILLER_15_6
*569 FILLER_15_61
*570 FILLER_15_69
*571 FILLER_15_77
*572 FILLER_16_11
*573 FILLER_16_111
*574 FILLER_16_122
*575 FILLER_16_138
*576 FILLER_16_173
*577 FILLER_16_185
*578 FILLER_16_3
*579 FILLER_16_32
*580 FILLER_16_38
*581 FILLER_16_47
*582 FILLER_16_59
*583 FILLER_16_71
*584 FILLER_16_79
*585 FILLER_16_99
*586 FILLER_17_109
*587 FILLER_17_113
*588 FILLER_17_125
*589 FILLER_17_131
*590 FILLER_17_143
*591 FILLER_17_155
*592 FILLER_17_161
*593 FILLER_17_167
*594 FILLER_17_176
*595 FILLER_17_185
*596 FILLER_17_24
*597 FILLER_17_3
*598 FILLER_17_30
*599 FILLER_17_34
*600 FILLER_17_45
*601 FILLER_17_64
*602 FILLER_17_7
*603 FILLER_17_71
*604 FILLER_17_83
*605 FILLER_17_90
*606 FILLER_18_109
*607 FILLER_18_120
*608 FILLER_18_132
*609 FILLER_18_141
*610 FILLER_18_149
*611 FILLER_18_161
*612 FILLER_18_27
*613 FILLER_18_3
*614 FILLER_18_32
*615 FILLER_18_51
*616 FILLER_18_73
*617 FILLER_18_79
*618 FILLER_18_83
*619 FILLER_18_85
*620 FILLER_18_97
*621 FILLER_19_102
*622 FILLER_19_110
*623 FILLER_19_113
*624 FILLER_19_123
*625 FILLER_19_136
*626 FILLER_19_142
*627 FILLER_19_15
*628 FILLER_19_153
*629 FILLER_19_158
*630 FILLER_19_166
*631 FILLER_19_169
*632 FILLER_19_181
*633 FILLER_19_25
*634 FILLER_19_3
*635 FILLER_19_33
*636 FILLER_19_41
*637 FILLER_19_53
*638 FILLER_19_57
*639 FILLER_19_79
*640 FILLER_19_95
*641 FILLER_1_113
*642 FILLER_1_15
*643 FILLER_1_155
*644 FILLER_1_167
*645 FILLER_1_169
*646 FILLER_1_181
*647 FILLER_1_27
*648 FILLER_1_3
*649 FILLER_1_39
*650 FILLER_1_50
*651 FILLER_1_80
*652 FILLER_1_86
*653 FILLER_20_101
*654 FILLER_20_107
*655 FILLER_20_11
*656 FILLER_20_137
*657 FILLER_20_166
*658 FILLER_20_178
*659 FILLER_20_26
*660 FILLER_20_29
*661 FILLER_20_3
*662 FILLER_20_33
*663 FILLER_20_47
*664 FILLER_20_59
*665 FILLER_20_67
*666 FILLER_20_76
*667 FILLER_20_83
*668 FILLER_20_85
*669 FILLER_20_90
*670 FILLER_21_108
*671 FILLER_21_113
*672 FILLER_21_136
*673 FILLER_21_144
*674 FILLER_21_150
*675 FILLER_21_166
*676 FILLER_21_27
*677 FILLER_21_3
*678 FILLER_21_43
*679 FILLER_21_55
*680 FILLER_21_57
*681 FILLER_21_69
*682 FILLER_21_7
*683 FILLER_21_97
*684 FILLER_22_106
*685 FILLER_22_11
*686 FILLER_22_114
*687 FILLER_22_121
*688 FILLER_22_127
*689 FILLER_22_139
*690 FILLER_22_141
*691 FILLER_22_153
*692 FILLER_22_157
*693 FILLER_22_161
*694 FILLER_22_173
*695 FILLER_22_27
*696 FILLER_22_29
*697 FILLER_22_3
*698 FILLER_22_56
*699 FILLER_22_60
*700 FILLER_22_73
*701 FILLER_22_81
*702 FILLER_22_98
*703 FILLER_23_100
*704 FILLER_23_113
*705 FILLER_23_122
*706 FILLER_23_130
*707 FILLER_23_142
*708 FILLER_23_154
*709 FILLER_23_166
*710 FILLER_23_169
*711 FILLER_23_181
*712 FILLER_23_33
*713 FILLER_23_45
*714 FILLER_23_54
*715 FILLER_23_64
*716 FILLER_23_76
*717 FILLER_23_88
*718 FILLER_24_10
*719 FILLER_24_101
*720 FILLER_24_113
*721 FILLER_24_119
*722 FILLER_24_126
*723 FILLER_24_138
*724 FILLER_24_14
*725 FILLER_24_148
*726 FILLER_24_160
*727 FILLER_24_172
*728 FILLER_24_179
*729 FILLER_24_18
*730 FILLER_24_187
*731 FILLER_24_26
*732 FILLER_24_29
*733 FILLER_24_33
*734 FILLER_24_44
*735 FILLER_24_56
*736 FILLER_24_6
*737 FILLER_24_64
*738 FILLER_24_90
*739 FILLER_25_104
*740 FILLER_25_110
*741 FILLER_25_113
*742 FILLER_25_124
*743 FILLER_25_144
*744 FILLER_25_15
*745 FILLER_25_154
*746 FILLER_25_166
*747 FILLER_25_27
*748 FILLER_25_3
*749 FILLER_25_39
*750 FILLER_25_51
*751 FILLER_25_55
*752 FILLER_25_57
*753 FILLER_25_65
*754 FILLER_25_75
*755 FILLER_25_96
*756 FILLER_26_136
*757 FILLER_26_141
*758 FILLER_26_153
*759 FILLER_26_165
*760 FILLER_26_177
*761 FILLER_26_181
*762 FILLER_26_23
*763 FILLER_26_27
*764 FILLER_26_29
*765 FILLER_26_45
*766 FILLER_26_50
*767 FILLER_26_62
*768 FILLER_26_7
*769 FILLER_26_70
*770 FILLER_26_76
*771 FILLER_26_85
*772 FILLER_26_97
*773 FILLER_27_104
*774 FILLER_27_113
*775 FILLER_27_124
*776 FILLER_27_136
*777 FILLER_27_148
*778 FILLER_27_160
*779 FILLER_27_23
*780 FILLER_27_55
*781 FILLER_27_57
*782 FILLER_27_65
*783 FILLER_27_86
*784 FILLER_27_92
*785 FILLER_28_104
*786 FILLER_28_116
*787 FILLER_28_128
*788 FILLER_28_141
*789 FILLER_28_15
*790 FILLER_28_153
*791 FILLER_28_165
*792 FILLER_28_177
*793 FILLER_28_27
*794 FILLER_28_29
*795 FILLER_28_3
*796 FILLER_28_37
*797 FILLER_28_68
*798 FILLER_28_80
*799 FILLER_28_85
*800 FILLER_29_108
*801 FILLER_29_113
*802 FILLER_29_121
*803 FILLER_29_125
*804 FILLER_29_137
*805 FILLER_29_149
*806 FILLER_29_15
*807 FILLER_29_161
*808 FILLER_29_167
*809 FILLER_29_169
*810 FILLER_29_181
*811 FILLER_29_27
*812 FILLER_29_3
*813 FILLER_29_39
*814 FILLER_29_51
*815 FILLER_29_55
*816 FILLER_29_57
*817 FILLER_29_69
*818 FILLER_29_93
*819 FILLER_2_108
*820 FILLER_2_133
*821 FILLER_2_139
*822 FILLER_2_141
*823 FILLER_2_15
*824 FILLER_2_155
*825 FILLER_2_167
*826 FILLER_2_27
*827 FILLER_2_29
*828 FILLER_2_3
*829 FILLER_2_41
*830 FILLER_2_83
*831 FILLER_2_88
*832 FILLER_30_132
*833 FILLER_30_141
*834 FILLER_30_15
*835 FILLER_30_153
*836 FILLER_30_165
*837 FILLER_30_177
*838 FILLER_30_27
*839 FILLER_30_29
*840 FILLER_30_3
*841 FILLER_30_37
*842 FILLER_30_61
*843 FILLER_30_73
*844 FILLER_30_81
*845 FILLER_30_88
*846 FILLER_31_107
*847 FILLER_31_111
*848 FILLER_31_113
*849 FILLER_31_119
*850 FILLER_31_131
*851 FILLER_31_135
*852 FILLER_31_141
*853 FILLER_31_15
*854 FILLER_31_153
*855 FILLER_31_165
*856 FILLER_31_169
*857 FILLER_31_181
*858 FILLER_31_27
*859 FILLER_31_29
*860 FILLER_31_3
*861 FILLER_31_41
*862 FILLER_31_53
*863 FILLER_31_57
*864 FILLER_31_63
*865 FILLER_31_70
*866 FILLER_31_82
*867 FILLER_31_85
*868 FILLER_31_93
*869 FILLER_31_98
*870 FILLER_3_105
*871 FILLER_3_11
*872 FILLER_3_111
*873 FILLER_3_113
*874 FILLER_3_139
*875 FILLER_3_146
*876 FILLER_3_15
*877 FILLER_3_158
*878 FILLER_3_167
*879 FILLER_3_174
*880 FILLER_3_178
*881 FILLER_3_27
*882 FILLER_3_3
*883 FILLER_3_34
*884 FILLER_3_57
*885 FILLER_3_69
*886 FILLER_3_93
*887 FILLER_4_100
*888 FILLER_4_119
*889 FILLER_4_131
*890 FILLER_4_139
*891 FILLER_4_148
*892 FILLER_4_160
*893 FILLER_4_172
*894 FILLER_4_184
*895 FILLER_4_23
*896 FILLER_4_27
*897 FILLER_4_49
*898 FILLER_4_61
*899 FILLER_4_73
*900 FILLER_4_81
*901 FILLER_4_85
*902 FILLER_5_113
*903 FILLER_5_121
*904 FILLER_5_133
*905 FILLER_5_139
*906 FILLER_5_156
*907 FILLER_5_167
*908 FILLER_5_172
*909 FILLER_5_180
*910 FILLER_5_31
*911 FILLER_5_43
*912 FILLER_5_55
*913 FILLER_5_57
*914 FILLER_5_6
*915 FILLER_5_69
*916 FILLER_5_77
*917 FILLER_5_83
*918 FILLER_6_100
*919 FILLER_6_115
*920 FILLER_6_127
*921 FILLER_6_139
*922 FILLER_6_141
*923 FILLER_6_15
*924 FILLER_6_154
*925 FILLER_6_162
*926 FILLER_6_27
*927 FILLER_6_29
*928 FILLER_6_38
*929 FILLER_6_49
*930 FILLER_6_63
*931 FILLER_6_75
*932 FILLER_6_81
*933 FILLER_6_85
*934 FILLER_6_9
*935 FILLER_6_93
*936 FILLER_7_104
*937 FILLER_7_110
*938 FILLER_7_113
*939 FILLER_7_125
*940 FILLER_7_137
*941 FILLER_7_150
*942 FILLER_7_164
*943 FILLER_7_169
*944 FILLER_7_181
*945 FILLER_7_23
*946 FILLER_7_55
*947 FILLER_7_57
*948 FILLER_7_69
*949 FILLER_7_77
*950 FILLER_7_85
*951 FILLER_7_96
*952 FILLER_8_107
*953 FILLER_8_114
*954 FILLER_8_120
*955 FILLER_8_132
*956 FILLER_8_139
*957 FILLER_8_15
*958 FILLER_8_151
*959 FILLER_8_159
*960 FILLER_8_164
*961 FILLER_8_174
*962 FILLER_8_185
*963 FILLER_8_20
*964 FILLER_8_29
*965 FILLER_8_3
*966 FILLER_8_35
*967 FILLER_8_40
*968 FILLER_8_48
*969 FILLER_8_56
*970 FILLER_8_68
*971 FILLER_8_72
*972 FILLER_8_78
*973 FILLER_8_83
*974 FILLER_8_85
*975 FILLER_8_89
*976 FILLER_9_105
*977 FILLER_9_111
*978 FILLER_9_129
*979 FILLER_9_142
*980 FILLER_9_154
*981 FILLER_9_162
*982 FILLER_9_26
*983 FILLER_9_44
*984 FILLER_9_55
*985 FILLER_9_63
*986 FILLER_9_87
*987 FILLER_9_96
*988 PHY_EDGE_ROW_0_Left_32
*989 PHY_EDGE_ROW_0_Right_0
*990 PHY_EDGE_ROW_10_Left_42
*991 PHY_EDGE_ROW_10_Right_10
*992 PHY_EDGE_ROW_11_Left_43
*993 PHY_EDGE_ROW_11_Right_11
*994 PHY_EDGE_ROW_12_Left_44
*995 PHY_EDGE_ROW_12_Right_12
*996 PHY_EDGE_ROW_13_Left_45
*997 PHY_EDGE_ROW_13_Right_13
*998 PHY_EDGE_ROW_14_Left_46
*999 PHY_EDGE_ROW_14_Right_14
*1000 PHY_EDGE_ROW_15_Left_47
*1001 PHY_EDGE_ROW_15_Right_15
*1002 PHY_EDGE_ROW_16_Left_48
*1003 PHY_EDGE_ROW_16_Right_16
*1004 PHY_EDGE_ROW_17_Left_49
*1005 PHY_EDGE_ROW_17_Right_17
*1006 PHY_EDGE_ROW_18_Left_50
*1007 PHY_EDGE_ROW_18_Right_18
*1008 PHY_EDGE_ROW_19_Left_51
*1009 PHY_EDGE_ROW_19_Right_19
*1010 PHY_EDGE_ROW_1_Left_33
*1011 PHY_EDGE_ROW_1_Right_1
*1012 PHY_EDGE_ROW_20_Left_52
*1013 PHY_EDGE_ROW_20_Right_20
*1014 PHY_EDGE_ROW_21_Left_53
*1015 PHY_EDGE_ROW_21_Right_21
*1016 PHY_EDGE_ROW_22_Left_54
*1017 PHY_EDGE_ROW_22_Right_22
*1018 PHY_EDGE_ROW_23_Left_55
*1019 PHY_EDGE_ROW_23_Right_23
*1020 PHY_EDGE_ROW_24_Left_56
*1021 PHY_EDGE_ROW_24_Right_24
*1022 PHY_EDGE_ROW_25_Left_57
*1023 PHY_EDGE_ROW_25_Right_25
*1024 PHY_EDGE_ROW_26_Left_58
*1025 PHY_EDGE_ROW_26_Right_26
*1026 PHY_EDGE_ROW_27_Left_59
*1027 PHY_EDGE_ROW_27_Right_27
*1028 PHY_EDGE_ROW_28_Left_60
*1029 PHY_EDGE_ROW_28_Right_28
*1030 PHY_EDGE_ROW_29_Left_61
*1031 PHY_EDGE_ROW_29_Right_29
*1032 PHY_EDGE_ROW_2_Left_34
*1033 PHY_EDGE_ROW_2_Right_2
*1034 PHY_EDGE_ROW_30_Left_62
*1035 PHY_EDGE_ROW_30_Right_30
*1036 PHY_EDGE_ROW_31_Left_63
*1037 PHY_EDGE_ROW_31_Right_31
*1038 PHY_EDGE_ROW_3_Left_35
*1039 PHY_EDGE_ROW_3_Right_3
*1040 PHY_EDGE_ROW_4_Left_36
*1041 PHY_EDGE_ROW_4_Right_4
*1042 PHY_EDGE_ROW_5_Left_37
*1043 PHY_EDGE_ROW_5_Right_5
*1044 PHY_EDGE_ROW_6_Left_38
*1045 PHY_EDGE_ROW_6_Right_6
*1046 PHY_EDGE_ROW_7_Left_39
*1047 PHY_EDGE_ROW_7_Right_7
*1048 PHY_EDGE_ROW_8_Left_40
*1049 PHY_EDGE_ROW_8_Right_8
*1050 PHY_EDGE_ROW_9_Left_41
*1051 PHY_EDGE_ROW_9_Right_9
*1052 TAP_TAPCELL_ROW_0_64
*1053 TAP_TAPCELL_ROW_0_65
*1054 TAP_TAPCELL_ROW_0_66
*1055 TAP_TAPCELL_ROW_0_67
*1056 TAP_TAPCELL_ROW_0_68
*1057 TAP_TAPCELL_ROW_0_69
*1058 TAP_TAPCELL_ROW_10_97
*1059 TAP_TAPCELL_ROW_10_98
*1060 TAP_TAPCELL_ROW_10_99
*1061 TAP_TAPCELL_ROW_11_100
*1062 TAP_TAPCELL_ROW_11_101
*1063 TAP_TAPCELL_ROW_11_102
*1064 TAP_TAPCELL_ROW_12_103
*1065 TAP_TAPCELL_ROW_12_104
*1066 TAP_TAPCELL_ROW_12_105
*1067 TAP_TAPCELL_ROW_13_106
*1068 TAP_TAPCELL_ROW_13_107
*1069 TAP_TAPCELL_ROW_13_108
*1070 TAP_TAPCELL_ROW_14_109
*1071 TAP_TAPCELL_ROW_14_110
*1072 TAP_TAPCELL_ROW_14_111
*1073 TAP_TAPCELL_ROW_15_112
*1074 TAP_TAPCELL_ROW_15_113
*1075 TAP_TAPCELL_ROW_15_114
*1076 TAP_TAPCELL_ROW_16_115
*1077 TAP_TAPCELL_ROW_16_116
*1078 TAP_TAPCELL_ROW_16_117
*1079 TAP_TAPCELL_ROW_17_118
*1080 TAP_TAPCELL_ROW_17_119
*1081 TAP_TAPCELL_ROW_17_120
*1082 TAP_TAPCELL_ROW_18_121
*1083 TAP_TAPCELL_ROW_18_122
*1084 TAP_TAPCELL_ROW_18_123
*1085 TAP_TAPCELL_ROW_19_124
*1086 TAP_TAPCELL_ROW_19_125
*1087 TAP_TAPCELL_ROW_19_126
*1088 TAP_TAPCELL_ROW_1_70
*1089 TAP_TAPCELL_ROW_1_71
*1090 TAP_TAPCELL_ROW_1_72
*1091 TAP_TAPCELL_ROW_20_127
*1092 TAP_TAPCELL_ROW_20_128
*1093 TAP_TAPCELL_ROW_20_129
*1094 TAP_TAPCELL_ROW_21_130
*1095 TAP_TAPCELL_ROW_21_131
*1096 TAP_TAPCELL_ROW_21_132
*1097 TAP_TAPCELL_ROW_22_133
*1098 TAP_TAPCELL_ROW_22_134
*1099 TAP_TAPCELL_ROW_22_135
*1100 TAP_TAPCELL_ROW_23_136
*1101 TAP_TAPCELL_ROW_23_137
*1102 TAP_TAPCELL_ROW_23_138
*1103 TAP_TAPCELL_ROW_24_139
*1104 TAP_TAPCELL_ROW_24_140
*1105 TAP_TAPCELL_ROW_24_141
*1106 TAP_TAPCELL_ROW_25_142
*1107 TAP_TAPCELL_ROW_25_143
*1108 TAP_TAPCELL_ROW_25_144
*1109 TAP_TAPCELL_ROW_26_145
*1110 TAP_TAPCELL_ROW_26_146
*1111 TAP_TAPCELL_ROW_26_147
*1112 TAP_TAPCELL_ROW_27_148
*1113 TAP_TAPCELL_ROW_27_149
*1114 TAP_TAPCELL_ROW_27_150
*1115 TAP_TAPCELL_ROW_28_151
*1116 TAP_TAPCELL_ROW_28_152
*1117 TAP_TAPCELL_ROW_28_153
*1118 TAP_TAPCELL_ROW_29_154
*1119 TAP_TAPCELL_ROW_29_155
*1120 TAP_TAPCELL_ROW_29_156
*1121 TAP_TAPCELL_ROW_2_73
*1122 TAP_TAPCELL_ROW_2_74
*1123 TAP_TAPCELL_ROW_2_75
*1124 TAP_TAPCELL_ROW_30_157
*1125 TAP_TAPCELL_ROW_30_158
*1126 TAP_TAPCELL_ROW_30_159
*1127 TAP_TAPCELL_ROW_31_160
*1128 TAP_TAPCELL_ROW_31_161
*1129 TAP_TAPCELL_ROW_31_162
*1130 TAP_TAPCELL_ROW_31_163
*1131 TAP_TAPCELL_ROW_31_164
*1132 TAP_TAPCELL_ROW_31_165
*1133 TAP_TAPCELL_ROW_3_76
*1134 TAP_TAPCELL_ROW_3_77
*1135 TAP_TAPCELL_ROW_3_78
*1136 TAP_TAPCELL_ROW_4_79
*1137 TAP_TAPCELL_ROW_4_80
*1138 TAP_TAPCELL_ROW_4_81
*1139 TAP_TAPCELL_ROW_5_82
*1140 TAP_TAPCELL_ROW_5_83
*1141 TAP_TAPCELL_ROW_5_84
*1142 TAP_TAPCELL_ROW_6_85
*1143 TAP_TAPCELL_ROW_6_86
*1144 TAP_TAPCELL_ROW_6_87
*1145 TAP_TAPCELL_ROW_7_88
*1146 TAP_TAPCELL_ROW_7_89
*1147 TAP_TAPCELL_ROW_7_90
*1148 TAP_TAPCELL_ROW_8_91
*1149 TAP_TAPCELL_ROW_8_92
*1150 TAP_TAPCELL_ROW_8_93
*1151 TAP_TAPCELL_ROW_9_94
*1152 TAP_TAPCELL_ROW_9_95
*1153 TAP_TAPCELL_ROW_9_96
*1154 _321_
*1155 _322_
*1156 _323_
*1157 _324_
*1158 _325_
*1159 _326_
*1160 _327_
*1161 _328_
*1162 _329_
*1163 _330_
*1164 _331_
*1165 _332_
*1166 _333_
*1167 _334_
*1168 _335_
*1169 _336_
*1170 _337_
*1171 _338_
*1172 _339_
*1173 _340_
*1174 _341_
*1175 _342_
*1176 _343_
*1177 _344_
*1178 _345_
*1179 _346_
*1180 _347_
*1181 _348_
*1182 _349_
*1183 _350_
*1184 _351_
*1185 _352_
*1186 _353_
*1187 _354_
*1188 _355_
*1189 _356_
*1190 _357_
*1191 _358_
*1192 _359_
*1193 _360_
*1194 _361_
*1195 _362_
*1196 _363_
*1197 _364_
*1198 _365_
*1199 _366_
*1200 _367_
*1201 _368_
*1202 _369_
*1203 _370_
*1204 _371_
*1205 _372_
*1206 _373_
*1207 _374_
*1208 _375_
*1209 _376_
*1210 _377_
*1211 _378_
*1212 _379_
*1213 _380_
*1214 _381_
*1215 _382_
*1216 _383_
*1217 _384_
*1218 _385_
*1219 _386_
*1220 _387_
*1221 _388_
*1222 _389_
*1223 _390_
*1224 _391_
*1225 _392_
*1226 _393_
*1227 _394_
*1228 _395_
*1229 _396_
*1230 _397_
*1231 _398_
*1232 _399_
*1233 _400_
*1234 _401_
*1235 _402_
*1236 _403_
*1237 _404_
*1238 _405_
*1239 _406_
*1240 _407_
*1241 _408_
*1242 _409_
*1243 _410_
*1244 _411_
*1245 _412_
*1246 _413_
*1247 _414_
*1248 _415_
*1249 _416_
*1250 _417_
*1251 _418_
*1252 _419_
*1253 _420_
*1254 _421_
*1255 _422_
*1256 _423_
*1257 _424_
*1258 _425_
*1259 _426_
*1260 _427_
*1261 _428_
*1262 _429_
*1263 _430_
*1264 _431_
*1265 _432_
*1266 _433_
*1267 _434_
*1268 _435_
*1269 _436_
*1270 _437_
*1271 _438_
*1272 _439_
*1273 _440_
*1274 _441_
*1275 _442_
*1276 _443_
*1277 _444_
*1278 _445_
*1279 _446_
*1280 _447_
*1281 _448_
*1282 _449_
*1283 _450_
*1284 _451_
*1285 _452_
*1286 _453_
*1287 _454_
*1288 _455_
*1289 _456_
*1290 _457_
*1291 _458_
*1292 _459_
*1293 _460_
*1294 _461_
*1295 _462_
*1296 _463_
*1297 _464_
*1298 _465_
*1299 _466_
*1300 _467_
*1301 _468_
*1302 _469_
*1303 _470_
*1304 _471_
*1305 _472_
*1306 _473_
*1307 _474_
*1308 _475_
*1309 _476_
*1310 _477_
*1311 _478_
*1312 _479_
*1313 _480_
*1314 _481_
*1315 _482_
*1316 _483_
*1317 _484_
*1318 _485_
*1319 _486_
*1320 _487_
*1321 _488_
*1322 _489_
*1323 _490_
*1324 _491_
*1325 _492_
*1326 _493_
*1327 _494_
*1328 _495_
*1329 _496_
*1330 _497_
*1331 _498_
*1332 _499_
*1333 _500_
*1334 _501_
*1335 _502_
*1336 _503_
*1337 _504_
*1338 _505_
*1339 _506_
*1340 _507_
*1341 _508_
*1342 _509_
*1343 _510_
*1344 _511_
*1345 _512_
*1346 _513_
*1347 _514_
*1348 _515_
*1349 _516_
*1350 _517_
*1351 _518_
*1352 _519_
*1353 _520_
*1354 _521_
*1355 _522_
*1356 _523_
*1357 _524_
*1358 _525_
*1359 _526_
*1360 _527_
*1361 _528_
*1362 _529_
*1363 _530_
*1364 _531_
*1365 _532_
*1366 _533_
*1367 _534_
*1368 _535_
*1369 _536_
*1370 _537_
*1371 _538_
*1372 _539_
*1373 _540_
*1374 _541_
*1375 _542_
*1376 _543_
*1377 _544_
*1378 _545_
*1379 _546_
*1380 _547_
*1381 _548_
*1382 _549_
*1383 _550_
*1384 _551_
*1385 _552_
*1386 _553_
*1387 _554_
*1388 _555_
*1389 _556_
*1390 _557_
*1391 _558_
*1392 _559_
*1393 _560_
*1394 _561_
*1395 _562_
*1396 _563_
*1397 _564_
*1398 _565_
*1399 _566_
*1400 _567_
*1401 _568_
*1402 _569_
*1403 _570_
*1404 _571_
*1405 _572_
*1406 _573_
*1407 _574_
*1408 _575_
*1409 _576_
*1410 _577_
*1411 _578_
*1412 _579_
*1413 _580_
*1414 _581_
*1415 _582_
*1416 _583_
*1417 _584_
*1418 _585_
*1419 _586_
*1420 _587_
*1421 _588_
*1422 _589_
*1423 _590_
*1424 _591_
*1425 _592_
*1426 _593_
*1427 _594_
*1428 _595_
*1429 _596_
*1430 _597_
*1431 _598_
*1432 _599_
*1433 _600_
*1434 _601_
*1435 _602_
*1436 _603_
*1437 _604_
*1438 _605_
*1439 _606_
*1440 _607_
*1441 _608_
*1442 _609_
*1443 _610_
*1444 _611_
*1445 _612_
*1446 _613_
*1447 _614_
*1448 _615_
*1449 _616_
*1450 _617_
*1451 _618_
*1452 _619_
*1453 _620_
*1454 _621_
*1455 _622_
*1456 _623_
*1457 _624_
*1458 _625_
*1459 _626_
*1460 _627_
*1461 _628_
*1462 _629_
*1463 _630_
*1464 _631_
*1465 _632_
*1466 _633_
*1467 _634_
*1468 _635_
*1469 _636_
*1470 _637_
*1471 _638_
*1472 _639_
*1473 _640_
*1474 _641_
*1475 _642_
*1476 _643_
*1477 _644_
*1478 _645_
*1479 _646_
*1480 _647_
*1481 _648_
*1482 _649_
*1483 _650_
*1484 _651_
*1485 _652_
*1486 _653_
*1487 _654_
*1488 _655_
*1489 _656_
*1490 _657_
*1491 _658_
*1492 _659_
*1493 _660_
*1494 _661_
*1495 _662_
*1496 _663_
*1497 _664_
*1498 _665_
*1499 _666_
*1500 _667_
*1501 _668_
*1502 _669_
*1503 _670_
*1504 _671_
*1505 _672_
*1506 _673_
*1507 _674_
*1508 _675_
*1509 _676_
*1510 _677_
*1511 _678_
*1512 _679_
*1513 _680_
*1514 _681_
*1515 _682_
*1516 _683_
*1517 _684_
*1518 _685_
*1519 _686_
*1520 _687_
*1521 _688_
*1522 _689_
*1523 clkbuf_0_clk
*1524 clkbuf_2_0__f_clk
*1525 clkbuf_2_1__f_clk
*1526 clkbuf_2_2__f_clk
*1527 clkbuf_2_3__f_clk
*1528 clkload0
*1529 clkload1
*1530 clkload2
*1531 fanout35
*1532 fanout36
*1533 fanout37
*1534 fanout38
*1535 fanout39
*1536 fanout40
*1537 fanout41
*1538 fanout42
*1539 fanout43
*1540 fanout44
*1541 fanout45
*1542 fanout46
*1543 fanout47
*1544 fanout48
*1545 fanout49
*1546 fanout50
*1547 fanout51
*1548 fanout52
*1549 fanout53
*1550 fanout54
*1551 fanout55
*1552 fanout56
*1553 fanout57
*1554 fanout58
*1555 fanout59
*1556 fanout60
*1557 fanout61
*1558 fanout62
*1559 input1
*1560 input10
*1561 input11
*1562 input12
*1563 input13
*1564 input14
*1565 input15
*1566 input16
*1567 input17
*1568 input2
*1569 input3
*1570 input4
*1571 input5
*1572 input6
*1573 input7
*1574 input8
*1575 input9
*1576 max_cap34
*1577 output18
*1578 output19
*1579 output20
*1580 output21
*1581 output22
*1582 output23
*1583 output24
*1584 output25
*1585 output26
*1586 output27
*1587 output28
*1588 output29
*1589 output30
*1590 output31
*1591 output32
*1592 output33

*PORTS
a[0] I
a[1] I
a[2] I
a[3] I
a[4] I
a[5] I
a[6] I
a[7] I
b[0] I
b[1] I
b[2] I
b[3] I
b[4] I
b[5] I
b[6] I
b[7] I
clk I
product[0] O
product[10] O
product[11] O
product[12] O
product[13] O
product[14] O
product[15] O
product[1] O
product[2] O
product[3] O
product[4] O
product[5] O
product[6] O
product[7] O
product[8] O
product[9] O
rst I

*D_NET *3 0.00132417
*CONN
*P a[0] I
*I *1559:A I *D sky130_fd_sc_hd__clkbuf_1
*CAP
1 a[0] 0.000590992
2 *1559:A 0.000590992
3 *1559:A *1466:A 8.8266e-05
4 *1559:A *1498:RESET_B 8.55867e-07
5 *1559:A *1568:A 5.30673e-05
6 *1559:A *359:16 0
*RES
1 a[0] *1559:A 17.77 
*END

*D_NET *4 0.00222539
*CONN
*P a[1] I
*I *1568:A I *D sky130_fd_sc_hd__clkbuf_1
*CAP
1 a[1] 0.000948888
2 *1568:A 0.000948888
3 *1568:A *1466:A 0.000189592
4 *1568:A *1499:D 8.49536e-05
5 *1568:A *359:16 0
6 *1559:A *1568:A 5.30673e-05
*RES
1 a[1] *1568:A 17.805 
*END

*D_NET *5 0.000929198
*CONN
*P a[2] I
*I *1569:A I *D sky130_fd_sc_hd__clkbuf_1
*CAP
1 a[2] 0.000449293
2 *1569:A 0.000449293
3 *1569:A *1476:A 9.50342e-06
4 *1569:A *1500:D 2.11084e-05
5 *1569:A *1561:A 0
*RES
1 a[2] *1569:A 11.385 
*END

*D_NET *6 0.000888412
*CONN
*P a[3] I
*I *1570:A I *D sky130_fd_sc_hd__clkbuf_1
*CAP
1 a[3] 0.000442381
2 *1570:A 0.000442381
3 *1570:A *1501:D 3.64998e-06
4 *1570:A *1560:A 0
*RES
1 a[3] *1570:A 11.25 
*END

*D_NET *7 0.000624926
*CONN
*P a[4] I
*I *1571:A I *D sky130_fd_sc_hd__clkbuf_1
*CAP
1 a[4] 0.000298209
2 *1571:A 0.000298209
3 *1571:A *1505:D 0
4 *1571:A *1562:A 2.85068e-05
5 *1571:A *1574:A 0
*RES
1 a[4] *1571:A 7.5993 
*END

*D_NET *8 0.000860038
*CONN
*P a[5] I
*I *1572:A I *D sky130_fd_sc_hd__clkbuf_1
*CAP
1 a[5] 0.000295064
2 *1572:A 0.000295064
3 *1572:A *1563:A 0.000232918
4 *1572:A *1573:A 3.6993e-05
5 *1572:A *375:118 0
*RES
1 a[5] *1572:A 8.54543 
*END

*D_NET *9 0.000656576
*CONN
*P a[6] I
*I *1573:A I *D sky130_fd_sc_hd__clkbuf_1
*CAP
1 a[6] 0.000254375
2 *1573:A 0.000254375
3 *1573:A *1504:D 5.78448e-05
4 *1573:A *1562:A 0
5 *1573:A *1574:A 2.24901e-05
6 *1573:A *375:101 2.03321e-05
7 *1573:A *375:118 1.01661e-05
8 *1572:A *1573:A 3.6993e-05
*RES
1 a[6] *1573:A 6.63177 
*END

*D_NET *10 0.000678513
*CONN
*P a[7] I
*I *1574:A I *D sky130_fd_sc_hd__clkbuf_1
*CAP
1 a[7] 0.000312307
2 *1574:A 0.000312307
3 *1574:A *1562:A 3.14094e-05
4 *1574:A *375:84 0
5 *1571:A *1574:A 0
6 *1573:A *1574:A 2.24901e-05
*RES
1 a[7] *1574:A 8.1093 
*END

*D_NET *11 0.000877785
*CONN
*P b[0] I
*I *1575:A I *D sky130_fd_sc_hd__clkbuf_1
*CAP
1 b[0] 0.000438892
2 *1575:A 0.000438892
3 *1575:A *359:16 0
*RES
1 b[0] *1575:A 11.04 
*END

*D_NET *12 0.000882419
*CONN
*P b[1] I
*I *1560:A I *D sky130_fd_sc_hd__clkbuf_1
*CAP
1 b[1] 0.000432017
2 *1560:A 0.000432017
3 *1560:A *1507:D 1.83847e-05
4 *1560:A *1561:A 0
5 *1570:A *1560:A 0
*RES
1 b[1] *1560:A 11.04 
*END

*D_NET *13 0.000786235
*CONN
*P b[2] I
*I *1561:A I *D sky130_fd_sc_hd__clkbuf_1
*CAP
1 b[2] 0.000393118
2 *1561:A 0.000393118
3 *1560:A *1561:A 0
4 *1569:A *1561:A 0
*RES
1 b[2] *1561:A 10.35 
*END

*D_NET *14 0.000730095
*CONN
*P b[3] I
*I *1562:A I *D sky130_fd_sc_hd__clkbuf_1
*CAP
1 b[3] 0.000307836
2 *1562:A 0.000307836
3 *1562:A *1505:D 3.71013e-05
4 *1562:A *375:84 1.74055e-05
5 *1571:A *1562:A 2.85068e-05
6 *1573:A *1562:A 0
7 *1574:A *1562:A 3.14094e-05
*RES
1 b[3] *1562:A 6.21003 
*END

*D_NET *15 0.000731469
*CONN
*P b[4] I
*I *1563:A I *D sky130_fd_sc_hd__clkbuf_1
*CAP
1 b[4] 0.00023803
2 *1563:A 0.00023803
3 *1563:A *1564:A 2.24901e-05
4 *1563:A *375:118 0
5 *1572:A *1563:A 0.000232918
*RES
1 b[4] *1563:A 7.5993 
*END

*D_NET *16 0.000736692
*CONN
*P b[5] I
*I *1564:A I *D sky130_fd_sc_hd__clkbuf_1
*CAP
1 b[5] 0.000357101
2 *1564:A 0.000357101
3 *1564:A *1512:CLK 0
4 *1564:A *1565:A 0
5 *1563:A *1564:A 2.24901e-05
*RES
1 b[5] *1564:A 8.6193 
*END

*D_NET *17 0.000634958
*CONN
*P b[6] I
*I *1565:A I *D sky130_fd_sc_hd__clkbuf_1
*CAP
1 b[6] 0.000292498
2 *1565:A 0.000292498
3 *1565:A *1523:A 4.99619e-05
4 *1564:A *1565:A 0
*RES
1 b[6] *1565:A 7.5993 
*END

*D_NET *18 0.000737419
*CONN
*P b[7] I
*I *1566:A I *D sky130_fd_sc_hd__clkbuf_1
*CAP
1 b[7] 0.000267631
2 *1566:A 0.000267631
3 *1566:A *1513:D 4.9653e-05
4 *1566:A *19:11 0.000152503
*RES
1 b[7] *1566:A 6.37677 
*END

*D_NET *19 0.0100222
*CONN
*P clk I
*I *1523:A I *D sky130_fd_sc_hd__clkbuf_16
*CAP
1 clk 0.00179889
2 *1523:A 0.00165782
3 *19:11 0.00345671
4 *1523:A *1257:A2 3.64998e-06
5 *1523:A *1263:A 0.000122331
6 *1523:A *1303:A_N 0.000118081
7 *1523:A *1512:D 1.4389e-05